125820
  -OEChem-12311612523D

 31 33  0     1  0  0  0  0  0999 V2000
   -0.1174    4.7734   -0.7067 Br  0  0  0  0  0  0  0  0  0  0  0  0
   -1.1789   -1.3222    2.3614 Cl  0  0  0  0  0  0  0  0  0  0  0  0
    2.1526   -2.9562   -1.7869 O   0  0  0  0  0  0  0  0  0  0  0  0
    3.0100   -2.7290    0.6852 O   0  0  0  0  0  0  0  0  0  0  0  0
    2.5243   -0.5035    0.8443 N   0  0  0  0  0  0  0  0  0  0  0  0
    0.3241   -1.6683   -0.8530 N   0  0  0  0  0  0  0  0  0  0  0  0
    0.6110    0.6943   -0.2031 C   0  0  0  0  0  0  0  0  0  0  0  0
   -0.1767   -0.5488   -0.4566 C   0  0  0  0  0  0  0  0  0  0  0  0
    1.8316    0.6724    0.4898 C   0  0  0  0  0  0  0  0  0  0  0  0
   -1.6469   -0.5278   -0.2068 C   0  0  0  0  0  0  0  0  0  0  0  0
    1.7477   -1.7603   -1.1242 C   0  0  1  0  0  0  0  0  0  0  0  0
    0.0458    1.9254   -0.5746 C   0  0  0  0  0  0  0  0  0  0  0  0
    2.4556   -1.7316    0.2195 C   0  0  0  0  0  0  0  0  0  0  0  0
    2.4110    1.8853    0.8913 C   0  0  0  0  0  0  0  0  0  0  0  0
    0.6596    3.1234   -0.2111 C   0  0  0  0  0  0  0  0  0  0  0  0
    1.8321    3.1037    0.5364 C   0  0  0  0  0  0  0  0  0  0  0  0
   -2.1818   -0.8609    1.0332 C   0  0  0  0  0  0  0  0  0  0  0  0
   -2.4782   -0.1602   -1.2600 C   0  0  0  0  0  0  0  0  0  0  0  0
   -3.5634   -0.8258    1.2222 C   0  0  0  0  0  0  0  0  0  0  0  0
   -3.8598   -0.1252   -1.0707 C   0  0  0  0  0  0  0  0  0  0  0  0
   -4.4024   -0.4581    0.1703 C   0  0  0  0  0  0  0  0  0  0  0  0
    2.0900   -0.9344   -1.7586 H   0  0  0  0  0  0  0  0  0  0  0  0
    3.1955   -0.4217    1.6039 H   0  0  0  0  0  0  0  0  0  0  0  0
   -0.8805    1.9692   -1.1385 H   0  0  0  0  0  0  0  0  0  0  0  0
    3.3400    1.8936    1.4576 H   0  0  0  0  0  0  0  0  0  0  0  0
    2.3160    4.0274    0.8433 H   0  0  0  0  0  0  0  0  0  0  0  0
   -2.0704    0.0919   -2.2354 H   0  0  0  0  0  0  0  0  0  0  0  0
   -4.0024   -1.0824    2.1831 H   0  0  0  0  0  0  0  0  0  0  0  0
   -4.5131    0.1590   -1.8904 H   0  0  0  0  0  0  0  0  0  0  0  0
   -5.4781   -0.4313    0.3173 H   0  0  0  0  0  0  0  0  0  0  0  0
    3.1024   -2.8756   -1.9808 H   0  0  0  0  0  0  0  0  0  0  0  0
  1 15  1  0  0  0  0
  2 17  1  0  0  0  0
  3 11  1  0  0  0  0
  3 31  1  0  0  0  0
  4 13  2  0  0  0  0
  5  9  1  0  0  0  0
  5 13  1  0  0  0  0
  5 23  1  0  0  0  0
  6  8  2  0  0  0  0
  6 11  1  0  0  0  0
  7  8  1  0  0  0  0
  7  9  2  0  0  0  0
  7 12  1  0  0  0  0
  8 10  1  0  0  0  0
  9 14  1  0  0  0  0
 10 17  1  0  0  0  0
 10 18  2  0  0  0  0
 11 13  1  0  0  0  0
 11 22  1  0  0  0  0
 12 15  2  0  0  0  0
 12 24  1  0  0  0  0
 14 16  2  0  0  0  0
 14 25  1  0  0  0  0
 15 16  1  0  0  0  0
 16 26  1  0  0  0  0
 17 19  2  0  0  0  0
 18 20  1  0  0  0  0
 18 27  1  0  0  0  0
 19 21  1  0  0  0  0
 19 28  1  0  0  0  0
 20 21  2  0  0  0  0
 20 29  1  0  0  0  0
 21 30  1  0  0  0  0
M  END
> <PUBCHEM_COMPOUND_CID>
125820

> <PUBCHEM_CONFORMER_RMSD>
0.6

> <PUBCHEM_CONFORMER_DIVERSEORDER>
1
8
4
5
6
7
2
3

> <PUBCHEM_MMFF94_PARTIAL_CHARGES>
30
1 -0.11
10 0.09
11 0.59
12 -0.15
13 0.57
14 -0.15
15 0.11
16 -0.15
17 0.18
18 -0.15
19 -0.15
2 -0.18
20 -0.15
21 -0.15
23 0.37
24 0.15
25 0.15
26 0.15
27 0.15
28 0.15
29 0.15
3 -0.68
30 0.15
31 0.4
4 -0.57
5 -0.55
6 -0.7
7 0.09
8 0.28
9 0.12

> <PUBCHEM_EFFECTIVE_ROTOR_COUNT>
1.4

> <PUBCHEM_PHARMACOPHORE_FEATURES>
9
1 1 hydrophobe
1 3 acceptor
1 3 donor
1 4 acceptor
1 5 donor
1 6 acceptor
6 10 17 18 19 20 21 rings
6 7 9 12 14 15 16 rings
7 5 6 7 8 9 11 13 rings

> <PUBCHEM_HEAVY_ATOM_COUNT>
21

> <PUBCHEM_ATOM_DEF_STEREO_COUNT>
0

> <PUBCHEM_ATOM_UDEF_STEREO_COUNT>
1

> <PUBCHEM_BOND_DEF_STEREO_COUNT>
0

> <PUBCHEM_BOND_UDEF_STEREO_COUNT>
0

> <PUBCHEM_ISOTOPIC_ATOM_COUNT>
0

> <PUBCHEM_COMPONENT_COUNT>
1

> <PUBCHEM_CACTVS_TAUTO_COUNT>
3

> <PUBCHEM_CONFORMER_ID>
0001EB7C00000001

> <PUBCHEM_MMFF94_ENERGY>
76.8805

> <PUBCHEM_FEATURE_SELFOVERLAP>
45.72

> <PUBCHEM_SHAPE_FINGERPRINT>
108634 29 17691952778936209629
1100329 8 14803485782541610907
11582403 64 16238918785580936317
11640471 11 17630897199225756641
116883 192 18124309411320963389
11725454 13 17029322471936193223
12293681 4 18048867508098313045
12363563 72 18265617580608067298
12403259 327 17242427624934951617
12633257 1 17606105432470267937
12788726 201 17902809469706023014
13052359 8 17399228651617330780
13134695 92 18408595950932648039
13140716 1 17979067511636905680
13681431 1 18339380607363790076
14790565 3 18193279817564719332
14866123 147 17253982053376435811
15309172 13 17979073017816640405
15420108 30 17986373685025587856
16945 1 18264193884726904797
17357779 13 18127121983555170014
1813 80 17773058370366076342
19049666 15 18113609080476673697
20600515 1 17749379343668601204
20739085 24 18411707607541997584
21524375 3 17620478342662118165
21731228 192 17689722277838932064
22182313 1 17914032228568386338
23419403 2 17899381295788315628
23526113 38 18115291337493488537
23558518 356 17975118856465975236
23559900 14 17675925395475095527
2748010 2 17912911791485339630
3060560 45 18200032979342553620
31174 14 18189908667789591371
350125 39 17473263648508646880
3729539 64 17902267660204606708
404807 78 17175194392269568525
4409770 3 16831245108141697870
474 4 18196369453912184521
576247 118 18122654697997846346
5845 1 8494688783253562806
7364860 26 18341898549010234341
81228 2 17833277423770075532

> <PUBCHEM_SHAPE_MULTIPOLES>
418.28
5.54
4.51
1.54
6.1
2.92
-0.3
0.55
-0.91
-5.36
1.32
0.58
-0.83
0.82

> <PUBCHEM_SHAPE_SELFOVERLAP>
895.4

> <PUBCHEM_SHAPE_VOLUME>
236.6

> <PUBCHEM_COORDINATE_TYPE>
2
5
10

$$$$


37632
  -OEChem-12311612533D

 43 46  0     0  0  0  0  0  0999 V2000
    1.2937   -4.4320    1.0959 Cl  0  0  0  0  0  0  0  0  0  0  0  0
   -1.4142    0.7674    0.1892 N   0  0  0  0  0  0  0  0  0  0  0  0
   -4.4188   -0.5750   -0.6161 N   0  0  0  0  0  0  0  0  0  0  0  0
    1.3018    1.8747    1.0349 N   0  0  0  0  0  0  0  0  0  0  0  0
   -2.9222    2.2778   -0.3549 N   0  0  0  0  0  0  0  0  0  0  0  0
   -1.9680    2.8873    0.4228 N   0  0  0  0  0  0  0  0  0  0  0  0
   -0.7182   -0.4535    0.3304 C   0  0  0  0  0  0  0  0  0  0  0  0
   -2.5950    1.0104   -0.4633 C   0  0  0  0  0  0  0  0  0  0  0  0
   -1.0857    1.9731    0.7668 C   0  0  0  0  0  0  0  0  0  0  0  0
    0.6588   -0.4939    0.6254 C   0  0  0  0  0  0  0  0  0  0  0  0
   -3.3294    0.0656   -1.3306 C   0  0  0  0  0  0  0  0  0  0  0  0
    0.0430    2.1253    1.7102 C   0  0  0  0  0  0  0  0  0  0  0  0
    1.5622    0.7039    0.5602 C   0  0  0  0  0  0  0  0  0  0  0  0
   -1.4386   -1.6527    0.2070 C   0  0  0  0  0  0  0  0  0  0  0  0
    1.2644   -1.7372    0.8794 C   0  0  0  0  0  0  0  0  0  0  0  0
    2.8739    0.5583   -0.1387 C   0  0  0  0  0  0  0  0  0  0  0  0
   -0.8134   -2.8784    0.4377 C   0  0  0  0  0  0  0  0  0  0  0  0
    0.5310   -2.9199    0.7894 C   0  0  0  0  0  0  0  0  0  0  0  0
   -5.1375   -1.5088   -1.4886 C   0  0  0  0  0  0  0  0  0  0  0  0
   -5.3469    0.4232   -0.0759 C   0  0  0  0  0  0  0  0  0  0  0  0
    2.9931   -0.3419   -1.1886 C   0  0  0  0  0  0  0  0  0  0  0  0
    3.9558    1.3258    0.2706 C   0  0  0  0  0  0  0  0  0  0  0  0
    4.2180   -0.4778   -1.8417 C   0  0  0  0  0  0  0  0  0  0  0  0
    5.1807    1.1900   -0.3826 C   0  0  0  0  0  0  0  0  0  0  0  0
    5.3118    0.2882   -1.4388 C   0  0  0  0  0  0  0  0  0  0  0  0
   -3.7328    0.6405   -2.1782 H   0  0  0  0  0  0  0  0  0  0  0  0
   -2.6569   -0.6569   -1.8064 H   0  0  0  0  0  0  0  0  0  0  0  0
    0.0560    3.1518    2.0935 H   0  0  0  0  0  0  0  0  0  0  0  0
   -0.0771    1.4752    2.5852 H   0  0  0  0  0  0  0  0  0  0  0  0
   -2.5031   -1.7191    0.0769 H   0  0  0  0  0  0  0  0  0  0  0  0
    2.3168   -1.7928    1.1518 H   0  0  0  0  0  0  0  0  0  0  0  0
   -1.3995   -3.7922    0.3754 H   0  0  0  0  0  0  0  0  0  0  0  0
   -4.4569   -2.2776   -1.8714 H   0  0  0  0  0  0  0  0  0  0  0  0
   -5.6023   -1.0023   -2.3423 H   0  0  0  0  0  0  0  0  0  0  0  0
   -5.9195   -2.0342   -0.9293 H   0  0  0  0  0  0  0  0  0  0  0  0
   -6.2200   -0.0729    0.3658 H   0  0  0  0  0  0  0  0  0  0  0  0
   -5.7126    1.1151   -0.8436 H   0  0  0  0  0  0  0  0  0  0  0  0
   -4.9028    0.9957    0.7448 H   0  0  0  0  0  0  0  0  0  0  0  0
    2.1548   -0.9235   -1.5602 H   0  0  0  0  0  0  0  0  0  0  0  0
    3.8811    2.0274    1.0966 H   0  0  0  0  0  0  0  0  0  0  0  0
    4.3179   -1.1726   -2.6705 H   0  0  0  0  0  0  0  0  0  0  0  0
    6.0331    1.7850   -0.0680 H   0  0  0  0  0  0  0  0  0  0  0  0
    6.2651    0.1839   -1.9486 H   0  0  0  0  0  0  0  0  0  0  0  0
  1 18  1  0  0  0  0
  2  7  1  0  0  0  0
  2  8  1  0  0  0  0
  2  9  1  0  0  0  0
  3 11  1  0  0  0  0
  3 19  1  0  0  0  0
  3 20  1  0  0  0  0
  4 12  1  0  0  0  0
  4 13  2  0  0  0  0
  5  6  1  0  0  0  0
  5  8  2  0  0  0  0
  6  9  2  0  0  0  0
  7 10  2  0  0  0  0
  7 14  1  0  0  0  0
  8 11  1  0  0  0  0
  9 12  1  0  0  0  0
 10 13  1  0  0  0  0
 10 15  1  0  0  0  0
 11 26  1  0  0  0  0
 11 27  1  0  0  0  0
 12 28  1  0  0  0  0
 12 29  1  0  0  0  0
 13 16  1  0  0  0  0
 14 17  2  0  0  0  0
 14 30  1  0  0  0  0
 15 18  2  0  0  0  0
 15 31  1  0  0  0  0
 16 21  2  0  0  0  0
 16 22  1  0  0  0  0
 17 18  1  0  0  0  0
 17 32  1  0  0  0  0
 19 33  1  0  0  0  0
 19 34  1  0  0  0  0
 19 35  1  0  0  0  0
 20 36  1  0  0  0  0
 20 37  1  0  0  0  0
 20 38  1  0  0  0  0
 21 23  1  0  0  0  0
 21 39  1  0  0  0  0
 22 24  2  0  0  0  0
 22 40  1  0  0  0  0
 23 25  2  0  0  0  0
 23 41  1  0  0  0  0
 24 25  1  0  0  0  0
 24 42  1  0  0  0  0
 25 43  1  0  0  0  0
M  END
> <PUBCHEM_COMPOUND_CID>
37632

> <PUBCHEM_CONFORMER_RMSD>
0.6

> <PUBCHEM_CONFORMER_DIVERSEORDER>
1
10
6
3
9
4
5
2
8
7

> <PUBCHEM_MMFF94_PARTIAL_CHARGES>
33
1 -0.18
10 0.09
11 0.45
12 0.43
13 0.28
14 -0.15
15 -0.15
16 0.09
17 -0.15
18 0.18
19 0.27
2 0.33
20 0.27
21 -0.15
22 -0.15
23 -0.15
24 -0.15
25 -0.15
3 -0.81
30 0.15
31 0.15
32 0.15
39 0.15
4 -0.7
40 0.15
41 0.15
42 0.15
43 0.15
5 -0.34
6 -0.34
7 -0.02
8 0.01
9 0.01

> <PUBCHEM_EFFECTIVE_ROTOR_COUNT>
3.2

> <PUBCHEM_PHARMACOPHORE_FEATURES>
8
1 3 cation
1 4 acceptor
3 2 5 8 cation
3 2 6 9 cation
5 2 5 6 8 9 rings
6 16 21 22 23 24 25 rings
6 7 10 14 15 17 18 rings
7 2 4 7 9 10 12 13 rings

> <PUBCHEM_HEAVY_ATOM_COUNT>
25

> <PUBCHEM_ATOM_DEF_STEREO_COUNT>
0

> <PUBCHEM_ATOM_UDEF_STEREO_COUNT>
0

> <PUBCHEM_BOND_DEF_STEREO_COUNT>
0

> <PUBCHEM_BOND_UDEF_STEREO_COUNT>
0

> <PUBCHEM_ISOTOPIC_ATOM_COUNT>
0

> <PUBCHEM_COMPONENT_COUNT>
1

> <PUBCHEM_CACTVS_TAUTO_COUNT>
1

> <PUBCHEM_CONFORMER_ID>
0000930000000001

> <PUBCHEM_MMFF94_ENERGY>
96.7028

> <PUBCHEM_FEATURE_SELFOVERLAP>
43.171

> <PUBCHEM_SHAPE_FINGERPRINT>
10190108 129 18265638562409103665
10693767 8 18059843000528554111
10759866 29 18264485079694530919
108634 29 18341334508646829310
10906281 52 18056764453986041528
11796584 16 14836128788221830101
12035759 4 18053389799222791562
121448 382 18412267229101038112
12553582 1 18270947000131485023
12788726 201 18344148085629544480
13009979 54 17694212279721507474
13140716 1 18123731300580971203
133893 2 17533495630049499514
13540713 5 18123743159085940841
14114211 68 18188228519174691543
14787075 74 18343018938616720829
14790565 3 18410300245997228297
14931854 50 18411985732686258950
15163728 17 16806154437880097309
15463212 79 17895195567012255376
15475509 35 14188998047203590303
16752209 62 18410012139495307186
173720 79 17895179044019847266
17492 54 18187353364227946303
17909252 39 17560804269474568422
1813 80 12463568465812354354
19319366 153 18334846208859223767
19591789 44 18193271021608074299
19784866 140 18273214175316121373
20642791 178 17975973163772503114
20775438 99 17338406301210505407
21344244 181 18059586801128535654
221357 26 18202562895278762701
22182313 1 17979916338855405051
22393880 68 18267305318293010340
22907989 373 18052575250291068260
23366157 5 17825662249054390779
23557571 272 18048601714152558372
23559900 14 18341899653924904128
23566358 27 18121219771168153627
25147074 1 18195808458020832923
2748010 2 17907007731544669539
2838139 119 16515396378589984748
2871803 45 18342170068448178589
3759504 43 17749674094268021722
404807 78 17460313494058959619
4409770 3 18116445923429535442
469060 322 17824571731346095459
484989 97 17972883841521691267
513202 73 10878900648032240724
56616090 284 18202007629084825596
59755656 520 18187361065073062590
9709674 26 18130521773031089812
9981440 41 18333448733800727338

> <PUBCHEM_SHAPE_MULTIPOLES>
491.45
9.66
3.71
1.44
0.51
3.64
-0.3
-2.52
-6.31
0.28
1.94
-0.49
0.07
-0.62

> <PUBCHEM_SHAPE_SELFOVERLAP>
1073.301

> <PUBCHEM_SHAPE_VOLUME>
269

> <PUBCHEM_COORDINATE_TYPE>
2
5
10

$$$$

12317881
  -OEChem-12311612533D

 37 40  0     0  0  0  0  0  0999 V2000
   -0.3383   -2.3537   -2.0266 Cl  0  0  0  0  0  0  0  0  0  0  0  0
   -1.5080    4.8084   -0.3017 O   0  5  0  0  0  0  0  0  0  0  0  0
   -2.8780    3.3161    0.5552 O   0  0  0  0  0  0  0  0  0  0  0  0
    2.4133   -0.1377    0.0628 N   0  0  0  0  0  0  0  0  0  0  0  0
    0.3139   -1.8711    1.4435 N   0  0  0  0  0  0  0  0  0  0  0  0
    3.7074   -1.8083    0.6869 N   0  0  0  0  0  0  0  0  0  0  0  0
    4.3498   -1.1180   -0.3119 N   0  0  0  0  0  0  0  0  0  0  0  0
   -1.7541    3.6494    0.1094 N   0  3  0  0  0  0  0  0  0  0  0  0
    1.3255    0.7620    0.0149 C   0  0  0  0  0  0  0  0  0  0  0  0
    0.0381    0.3952    0.4539 C   0  0  0  0  0  0  0  0  0  0  0  0
    2.5640   -1.2009    0.9243 C   0  0  0  0  0  0  0  0  0  0  0  0
   -0.3692   -1.0177    0.7586 C   0  0  0  0  0  0  0  0  0  0  0  0
    1.5980   -1.4966    2.0043 C   0  0  0  0  0  0  0  0  0  0  0  0
    3.5807   -0.1101   -0.6552 C   0  0  0  0  0  0  0  0  0  0  0  0
    1.5561    2.0665   -0.4513 C   0  0  0  0  0  0  0  0  0  0  0  0
   -0.9701    1.3742    0.4997 C   0  0  0  0  0  0  0  0  0  0  0  0
   -1.6650   -1.5114    0.2041 C   0  0  0  0  0  0  0  0  0  0  0  0
   -0.7205    2.6764    0.0679 C   0  0  0  0  0  0  0  0  0  0  0  0
    0.5352    3.0171   -0.4219 C   0  0  0  0  0  0  0  0  0  0  0  0
    3.8940    0.7860   -1.7879 C   0  0  0  0  0  0  0  0  0  0  0  0
   -1.7378   -2.1250   -1.0407 C   0  0  0  0  0  0  0  0  0  0  0  0
   -2.8069   -1.3388    0.9782 C   0  0  0  0  0  0  0  0  0  0  0  0
   -2.9696   -2.5726   -1.5186 C   0  0  0  0  0  0  0  0  0  0  0  0
   -4.0386   -1.7863    0.5001 C   0  0  0  0  0  0  0  0  0  0  0  0
   -4.1199   -2.4031   -0.7481 C   0  0  0  0  0  0  0  0  0  0  0  0
    1.9713   -2.3364    2.6012 H   0  0  0  0  0  0  0  0  0  0  0  0
    1.5003   -0.6511    2.6959 H   0  0  0  0  0  0  0  0  0  0  0  0
    2.5277    2.4430   -0.7365 H   0  0  0  0  0  0  0  0  0  0  0  0
   -1.9570    1.1189    0.8700 H   0  0  0  0  0  0  0  0  0  0  0  0
    0.7679    4.0237   -0.7606 H   0  0  0  0  0  0  0  0  0  0  0  0
    3.0273    0.9884   -2.4232 H   0  0  0  0  0  0  0  0  0  0  0  0
    4.6344    0.3027   -2.4372 H   0  0  0  0  0  0  0  0  0  0  0  0
    4.3523    1.7180   -1.4455 H   0  0  0  0  0  0  0  0  0  0  0  0
   -2.7572   -0.8733    1.9590 H   0  0  0  0  0  0  0  0  0  0  0  0
   -3.0502   -3.0553   -2.4892 H   0  0  0  0  0  0  0  0  0  0  0  0
   -4.9338   -1.6573    1.1014 H   0  0  0  0  0  0  0  0  0  0  0  0
   -5.0789   -2.7522   -1.1197 H   0  0  0  0  0  0  0  0  0  0  0  0
  1 21  1  0  0  0  0
  2  8  1  0  0  0  0
  3  8  2  0  0  0  0
  4  9  1  0  0  0  0
  4 11  1  0  0  0  0
  4 14  1  0  0  0  0
  5 12  2  0  0  0  0
  5 13  1  0  0  0  0
  6  7  1  0  0  0  0
  6 11  2  0  0  0  0
  7 14  2  0  0  0  0
  8 18  1  0  0  0  0
  9 10  2  0  0  0  0
  9 15  1  0  0  0  0
 10 12  1  0  0  0  0
 10 16  1  0  0  0  0
 11 13  1  0  0  0  0
 12 17  1  0  0  0  0
 13 26  1  0  0  0  0
 13 27  1  0  0  0  0
 14 20  1  0  0  0  0
 15 19  2  0  0  0  0
 15 28  1  0  0  0  0
 16 18  2  0  0  0  0
 16 29  1  0  0  0  0
 17 21  1  0  0  0  0
 17 22  2  0  0  0  0
 18 19  1  0  0  0  0
 19 30  1  0  0  0  0
 20 31  1  0  0  0  0
 20 32  1  0  0  0  0
 20 33  1  0  0  0  0
 21 23  2  0  0  0  0
 22 24  1  0  0  0  0
 22 34  1  0  0  0  0
 23 25  1  0  0  0  0
 23 35  1  0  0  0  0
 24 25  2  0  0  0  0
 24 36  1  0  0  0  0
 25 37  1  0  0  0  0
M  CHG  2   2  -1   8   1
M  END
> <PUBCHEM_COMPOUND_CID>
12317881

> <PUBCHEM_CONFORMER_RMSD>
0.6

> <PUBCHEM_CONFORMER_DIVERSEORDER>
1
6
3
7
5
4
2

> <PUBCHEM_MMFF94_PARTIAL_CHARGES>
32
1 -0.18
10 0.09
11 0.01
12 0.28
13 0.43
14 0.01
15 -0.15
16 -0.15
17 0.09
18 0.13
19 -0.15
2 -0.52
20 0.18
21 0.18
22 -0.15
23 -0.15
24 -0.15
25 -0.15
28 0.15
29 0.15
3 -0.52
30 0.15
34 0.15
35 0.15
36 0.15
37 0.15
4 0.33
5 -0.7
6 -0.34
7 -0.34
8 0.91
9 -0.02

> <PUBCHEM_EFFECTIVE_ROTOR_COUNT>
2.2

> <PUBCHEM_PHARMACOPHORE_FEATURES>
10
1 2 acceptor
1 2 anion
1 3 acceptor
1 5 acceptor
3 4 6 11 cation
3 4 7 14 cation
5 4 6 7 11 14 rings
6 17 21 22 23 24 25 rings
6 9 10 15 16 18 19 rings
7 4 5 9 10 11 12 13 rings

> <PUBCHEM_HEAVY_ATOM_COUNT>
25

> <PUBCHEM_ATOM_DEF_STEREO_COUNT>
0

> <PUBCHEM_ATOM_UDEF_STEREO_COUNT>
0

> <PUBCHEM_BOND_DEF_STEREO_COUNT>
0

> <PUBCHEM_BOND_UDEF_STEREO_COUNT>
0

> <PUBCHEM_ISOTOPIC_ATOM_COUNT>
0

> <PUBCHEM_COMPONENT_COUNT>
1

> <PUBCHEM_CACTVS_TAUTO_COUNT>
1

> <PUBCHEM_CONFORMER_ID>
00BBF4B900000001

> <PUBCHEM_MMFF94_ENERGY>
97.1845

> <PUBCHEM_FEATURE_SELFOVERLAP>
53.398

> <PUBCHEM_SHAPE_FINGERPRINT>
104564 63 18410572851433247787
10871710 139 18336001812532278564
10906281 52 17759531353809137640
11578080 2 17845923100369914048
12035759 4 18188482480469077577
12156800 1 18049477810008099333
12403259 327 15195299675693177423
12422481 6 17912114710027516099
12553582 1 18338802337373228794
12788726 201 18409172103826695962
13004483 165 18341036510741059270
13134695 92 18265328606781468759
13140716 1 18410576193155480121
13911987 19 17610358395429140220
15131766 46 15505520225035453694
15210252 30 17750510865672161477
15238133 3 17825074122609029455
16752209 62 18341321193894868171
17138139 8 17548646930878229213
17980427 23 16902106940313413706
1813 80 18272094953820245030
21041028 32 18335986453961193867
21285901 2 17988660566121981415
221357 26 18262507226149483143
2255824 54 17619622927126817133
22620623 9 18200044940884488654
22907989 373 18410575054714768869
23419403 2 14944107482794491384
23558518 356 18260553269179256592
23598288 3 18265606585697349202
23598291 2 17913501408722136951
238 59 17113523278054174439
25 1 17613432663656223529
25147074 1 18040720208904699354
34934 24 18125160691150378572
352729 6 18051134687704679376
474 4 17329980812652809737
6438718 38 18341905030305703923
7164475 11 18409449163772198734
7471813 234 18335124424102832618
81228 2 17976221730820503243

> <PUBCHEM_SHAPE_MULTIPOLES>
479.71
6.61
4.75
1.53
1.45
8.03
0.2
-5.25
1.79
0.81
0.21
-0.13
-1.2
-1.35

> <PUBCHEM_SHAPE_SELFOVERLAP>
1061.734

> <PUBCHEM_SHAPE_VOLUME>
257.8

> <PUBCHEM_COORDINATE_TYPE>
2
5
10

$$$$

520217
  -OEChem-12311612553D

 32 34  0     0  0  0  0  0  0999 V2000
    3.3595   -0.2396    1.5071 F   0  0  0  0  0  0  0  0  0  0  0  0
    0.9714    4.4720   -0.5239 O   0  0  0  0  0  0  0  0  0  0  0  0
   -4.5258   -2.0360    0.1916 O   0  5  0  0  0  0  0  0  0  0  0  0
   -2.6852   -2.8851    1.0342 O   0  0  0  0  0  0  0  0  0  0  0  0
   -0.6537    2.8718   -0.7264 N   0  0  0  0  0  0  0  0  0  0  0  0
    1.6388    1.5220    0.7027 N   0  0  0  0  0  0  0  0  0  0  0  0
   -3.3074   -1.9481    0.4781 N   0  3  0  0  0  0  0  0  0  0  0  0
   -0.5477    0.5322    0.1206 C   0  0  0  0  0  0  0  0  0  0  0  0
   -1.2380    1.6212   -0.4365 C   0  0  0  0  0  0  0  0  0  0  0  0
    0.9393    0.5273    0.2737 C   0  0  0  0  0  0  0  0  0  0  0  0
    1.6954   -0.6945   -0.1259 C   0  0  0  0  0  0  0  0  0  0  0  0
   -1.2497   -0.6409    0.4436 C   0  0  0  0  0  0  0  0  0  0  0  0
   -2.5960    1.4770   -0.7585 C   0  0  0  0  0  0  0  0  0  0  0  0
    0.9605    2.7328    1.1111 C   0  0  0  0  0  0  0  0  0  0  0  0
   -2.6110   -0.7514    0.1628 C   0  0  0  0  0  0  0  0  0  0  0  0
    0.4559    3.4261   -0.1264 C   0  0  0  0  0  0  0  0  0  0  0  0
   -3.2799    0.3002   -0.4540 C   0  0  0  0  0  0  0  0  0  0  0  0
    2.8811   -1.0146    0.5230 C   0  0  0  0  0  0  0  0  0  0  0  0
    1.2023   -1.4993   -1.1453 C   0  0  0  0  0  0  0  0  0  0  0  0
    3.5855   -2.1581    0.1463 C   0  0  0  0  0  0  0  0  0  0  0  0
    1.9066   -2.6429   -1.5220 C   0  0  0  0  0  0  0  0  0  0  0  0
    3.0981   -2.9722   -0.8761 C   0  0  0  0  0  0  0  0  0  0  0  0
   -0.7197   -1.4640    0.9181 H   0  0  0  0  0  0  0  0  0  0  0  0
   -1.1399    3.4541   -1.4037 H   0  0  0  0  0  0  0  0  0  0  0  0
   -3.1441    2.2953   -1.2208 H   0  0  0  0  0  0  0  0  0  0  0  0
    1.6783    3.3928    1.6103 H   0  0  0  0  0  0  0  0  0  0  0  0
    0.1511    2.5535    1.8280 H   0  0  0  0  0  0  0  0  0  0  0  0
   -4.3361    0.2455   -0.7049 H   0  0  0  0  0  0  0  0  0  0  0  0
    0.3025   -1.2541   -1.7015 H   0  0  0  0  0  0  0  0  0  0  0  0
    4.5136   -2.4140    0.6489 H   0  0  0  0  0  0  0  0  0  0  0  0
    1.5327   -3.2717   -2.3248 H   0  0  0  0  0  0  0  0  0  0  0  0
    3.6478   -3.8614   -1.1708 H   0  0  0  0  0  0  0  0  0  0  0  0
  1 18  1  0  0  0  0
  2 16  2  0  0  0  0
  3  7  1  0  0  0  0
  4  7  2  0  0  0  0
  5  9  1  0  0  0  0
  5 16  1  0  0  0  0
  5 24  1  0  0  0  0
  6 10  2  0  0  0  0
  6 14  1  0  0  0  0
  7 15  1  0  0  0  0
  8  9  2  0  0  0  0
  8 10  1  0  0  0  0
  8 12  1  0  0  0  0
  9 13  1  0  0  0  0
 10 11  1  0  0  0  0
 11 18  1  0  0  0  0
 11 19  2  0  0  0  0
 12 15  2  0  0  0  0
 12 23  1  0  0  0  0
 13 17  2  0  0  0  0
 13 25  1  0  0  0  0
 14 16  1  0  0  0  0
 14 26  1  0  0  0  0
 14 27  1  0  0  0  0
 15 17  1  0  0  0  0
 17 28  1  0  0  0  0
 18 20  2  0  0  0  0
 19 21  1  0  0  0  0
 19 29  1  0  0  0  0
 20 22  1  0  0  0  0
 20 30  1  0  0  0  0
 21 22  2  0  0  0  0
 21 31  1  0  0  0  0
 22 32  1  0  0  0  0
M  CHG  2   3  -1   7   1
M  END
> <PUBCHEM_COMPOUND_CID>
520217

> <PUBCHEM_CONFORMER_RMSD>
0.6

> <PUBCHEM_CONFORMER_DIVERSEORDER>
1
2
4
6
8
7
3
5

> <PUBCHEM_MMFF94_PARTIAL_CHARGES>
30
1 -0.19
10 0.28
11 0.09
12 -0.15
13 -0.15
14 0.31
15 0.13
16 0.57
17 -0.15
18 0.19
19 -0.15
2 -0.57
20 -0.15
21 -0.15
22 -0.15
23 0.15
24 0.37
25 0.15
28 0.15
29 0.15
3 -0.52
30 0.15
31 0.15
32 0.15
4 -0.52
5 -0.55
6 -0.7
7 0.91
8 0.09
9 0.12

> <PUBCHEM_EFFECTIVE_ROTOR_COUNT>
2.4

> <PUBCHEM_PHARMACOPHORE_FEATURES>
9
1 2 acceptor
1 3 acceptor
1 3 anion
1 4 acceptor
1 5 donor
1 6 acceptor
6 11 18 19 20 21 22 rings
6 8 9 12 13 15 17 rings
7 5 6 8 9 10 14 16 rings

> <PUBCHEM_HEAVY_ATOM_COUNT>
22

> <PUBCHEM_ATOM_DEF_STEREO_COUNT>
0

> <PUBCHEM_ATOM_UDEF_STEREO_COUNT>
0

> <PUBCHEM_BOND_DEF_STEREO_COUNT>
0

> <PUBCHEM_BOND_UDEF_STEREO_COUNT>
0

> <PUBCHEM_ISOTOPIC_ATOM_COUNT>
0

> <PUBCHEM_COMPONENT_COUNT>
1

> <PUBCHEM_CACTVS_TAUTO_COUNT>
3

> <PUBCHEM_CONFORMER_ID>
0007F01900000001

> <PUBCHEM_MMFF94_ENERGY>
87.5999

> <PUBCHEM_FEATURE_SELFOVERLAP>
45.765

> <PUBCHEM_SHAPE_FINGERPRINT>
10366900 7 17912918397066251038
10906281 52 18340763737083695388
11578080 2 16228817481993614484
11582403 64 15964194514070369320
12173636 292 17327460220579365380
12363563 72 18409172090841996043
12553582 1 18338813238000096183
12714826 92 17969237654646761227
12788726 201 17978223855405400450
12839892 36 17546433939876709963
13083527 12 18122610919475442939
13140716 1 18269273474007664658
14022347 108 18119258267961539395
14790565 3 17761501682719656749
14863182 85 17397278599426933191
15415430 2 17908140979998104431
15422964 175 18342174436345438086
16752209 62 17615119984386817440
16945 1 17989200468958800393
19049666 15 17551226273112950390
19591789 44 17690003753079438740
20510252 161 17764306145896976056
20600515 1 18042670724524622196
20645477 70 18120647200730712303
21452121 199 18335143093934947030
21665056 4 17257943589217498854
23184049 29 18335136462336870707
23419403 2 17680396099968616695
23557571 272 18196650696907543470
23559900 14 18337663243500685889
2748010 2 18270101470804122028
3060560 45 17979079606417766044
3084891 72 17904755579802082997
314173 41 18408325471293975459
7364860 26 18194405721565101153
81228 2 18053671265330168296
8809292 202 17838052607243880574
9709674 26 17839457791847516206

> <PUBCHEM_SHAPE_MULTIPOLES>
412.92
6.02
4.66
1.11
2.54
2.91
-0.03
-5.61
-0.26
-2.75
0.12
0.48
-0.12
1.7

> <PUBCHEM_SHAPE_SELFOVERLAP>
915.478

> <PUBCHEM_SHAPE_VOLUME>
219.6

> <PUBCHEM_COORDINATE_TYPE>
2
5
10

$$$$

76168
  -OEChem-12311612563D

 33 35  0     0  0  0  0  0  0999 V2000
    0.3694   -4.5949    0.2251 Cl  0  0  0  0  0  0  0  0  0  0  0  0
   -1.1585    1.7250   -2.0181 Cl  0  0  0  0  0  0  0  0  0  0  0  0
    2.4936    3.2168    0.3838 O   0  0  0  0  0  0  0  0  0  0  0  0
    2.3932    1.0097   -0.3569 N   0  0  0  0  0  0  0  0  0  0  0  0
   -0.0407    1.5424    1.3794 N   0  0  0  0  0  0  0  0  0  0  0  0
    0.5873   -0.5876    0.3212 C   0  0  0  0  0  0  0  0  0  0  0  0
    1.8563   -0.3182   -0.2324 C   0  0  0  0  0  0  0  0  0  0  0  0
   -0.3690    0.4940    0.7029 C   0  0  0  0  0  0  0  0  0  0  0  0
    1.3445    1.6806    1.7766 C   0  0  0  0  0  0  0  0  0  0  0  0
   -1.7925    0.3834    0.2714 C   0  0  0  0  0  0  0  0  0  0  0  0
    2.1139    2.0525    0.5342 C   0  0  0  0  0  0  0  0  0  0  0  0
    0.1430   -1.9135    0.4751 C   0  0  0  0  0  0  0  0  0  0  0  0
    2.6125   -1.4148   -0.6920 C   0  0  0  0  0  0  0  0  0  0  0  0
    3.3382    1.2704   -1.4427 C   0  0  0  0  0  0  0  0  0  0  0  0
    0.9266   -2.9779    0.0404 C   0  0  0  0  0  0  0  0  0  0  0  0
    2.1554   -2.7279   -0.5544 C   0  0  0  0  0  0  0  0  0  0  0  0
   -2.2322    0.9095   -0.9390 C   0  0  0  0  0  0  0  0  0  0  0  0
   -2.6800   -0.2684    1.1224 C   0  0  0  0  0  0  0  0  0  0  0  0
   -3.5730    0.7830   -1.3024 C   0  0  0  0  0  0  0  0  0  0  0  0
   -4.0207   -0.3949    0.7589 C   0  0  0  0  0  0  0  0  0  0  0  0
   -4.4673    0.1308   -0.4535 C   0  0  0  0  0  0  0  0  0  0  0  0
    1.7578    0.7934    2.2688 H   0  0  0  0  0  0  0  0  0  0  0  0
    1.4295    2.5008    2.4980 H   0  0  0  0  0  0  0  0  0  0  0  0
   -0.8159   -2.1365    0.9319 H   0  0  0  0  0  0  0  0  0  0  0  0
    3.5955   -1.2775   -1.1357 H   0  0  0  0  0  0  0  0  0  0  0  0
    3.0023    0.7827   -2.3632 H   0  0  0  0  0  0  0  0  0  0  0  0
    4.3280    0.9067   -1.1501 H   0  0  0  0  0  0  0  0  0  0  0  0
    3.4194    2.3432   -1.6419 H   0  0  0  0  0  0  0  0  0  0  0  0
    2.7802   -3.5444   -0.9075 H   0  0  0  0  0  0  0  0  0  0  0  0
   -2.3506   -0.6708    2.0767 H   0  0  0  0  0  0  0  0  0  0  0  0
   -3.9371    1.1872   -2.2435 H   0  0  0  0  0  0  0  0  0  0  0  0
   -4.7177   -0.8999    1.4213 H   0  0  0  0  0  0  0  0  0  0  0  0
   -5.5114    0.0329   -0.7360 H   0  0  0  0  0  0  0  0  0  0  0  0
  1 15  1  0  0  0  0
  2 17  1  0  0  0  0
  3 11  2  0  0  0  0
  4  7  1  0  0  0  0
  4 11  1  0  0  0  0
  4 14  1  0  0  0  0
  5  8  2  0  0  0  0
  5  9  1  0  0  0  0
  6  7  2  0  0  0  0
  6  8  1  0  0  0  0
  6 12  1  0  0  0  0
  7 13  1  0  0  0  0
  8 10  1  0  0  0  0
  9 11  1  0  0  0  0
  9 22  1  0  0  0  0
  9 23  1  0  0  0  0
 10 17  1  0  0  0  0
 10 18  2  0  0  0  0
 12 15  2  0  0  0  0
 12 24  1  0  0  0  0
 13 16  2  0  0  0  0
 13 25  1  0  0  0  0
 14 26  1  0  0  0  0
 14 27  1  0  0  0  0
 14 28  1  0  0  0  0
 15 16  1  0  0  0  0
 16 29  1  0  0  0  0
 17 19  2  0  0  0  0
 18 20  1  0  0  0  0
 18 30  1  0  0  0  0
 19 21  1  0  0  0  0
 19 31  1  0  0  0  0
 20 21  2  0  0  0  0
 20 32  1  0  0  0  0
 21 33  1  0  0  0  0
M  END
> <PUBCHEM_COMPOUND_CID>
76168

> <PUBCHEM_CONFORMER_RMSD>
0.6

> <PUBCHEM_CONFORMER_DIVERSEORDER>
2
3
6
7
5
8
4
1

> <PUBCHEM_MMFF94_PARTIAL_CHARGES>
28
1 -0.18
10 0.09
11 0.57
12 -0.15
13 -0.15
14 0.3
15 0.18
16 -0.15
17 0.18
18 -0.15
19 -0.15
2 -0.18
20 -0.15
21 -0.15
24 0.15
25 0.15
29 0.15
3 -0.57
30 0.15
31 0.15
32 0.15
33 0.15
4 -0.48
5 -0.7
6 0.09
7 0.12
8 0.28
9 0.31

> <PUBCHEM_EFFECTIVE_ROTOR_COUNT>
1.4

> <PUBCHEM_PHARMACOPHORE_FEATURES>
5
1 3 acceptor
1 5 acceptor
6 10 17 18 19 20 21 rings
6 6 7 12 13 15 16 rings
7 4 5 6 7 8 9 11 rings

> <PUBCHEM_HEAVY_ATOM_COUNT>
21

> <PUBCHEM_ATOM_DEF_STEREO_COUNT>
0

> <PUBCHEM_ATOM_UDEF_STEREO_COUNT>
0

> <PUBCHEM_BOND_DEF_STEREO_COUNT>
0

> <PUBCHEM_BOND_UDEF_STEREO_COUNT>
0

> <PUBCHEM_ISOTOPIC_ATOM_COUNT>
0

> <PUBCHEM_COMPONENT_COUNT>
1

> <PUBCHEM_CACTVS_TAUTO_COUNT>
1

> <PUBCHEM_CONFORMER_ID>
0001298800000002

> <PUBCHEM_MMFF94_ENERGY>
86.2762

> <PUBCHEM_FEATURE_SELFOVERLAP>
25.383

> <PUBCHEM_SHAPE_FINGERPRINT>
10064457 181 18053407644759061819
10165383 225 18193296284152074004
11578080 2 16986000437970159625
12553582 1 17836375851938273451
12716301 132 17623275479232438320
12730499 353 18409736196668517267
12788726 201 16829521048223495150
13004483 165 17329973708497899003
13140716 1 18411136973844598267
13149001 5 18057062391619266204
13533116 47 18342739582066065947
13681431 1 18048589331255623898
13911987 19 18192451709552370918
15502722 9 18411978057447883341
16945 1 18342463637936509928
18186145 218 18271532003924696497
19591789 44 18267873967362389811
20361792 2 17486754308573801191
20645477 70 18200867401546917863
21452121 199 17976528417218785818
21452121 99 18051688038801397936
21524375 3 18260551173024466322
21731516 1 17702094777491251231
22112679 90 17344641330818710969
2255824 54 18343300349089625323
22802520 49 17970347018934730581
23114952 82 18188490142833191301
23419403 2 17755909394770794042
23557571 272 17603594040912427001
23559900 14 17968372338895319039
238 59 18266436798638383527
25 1 18271812379489882768
257057 1 17691961566592271122
2748010 2 18190759697941873555
3052486 1 17685207666121480535
3060560 45 18337950190017941924
3323516 105 18341900722585400431
3729539 64 18265354871144586364
4409770 3 17262138737679693312
458136 41 18339372953911390763
495365 180 18268406019922125953
57527452 28 15832203649240813135
633830 44 17988093295479049441
6442390 28 18193841663668567923
6992083 37 8327996348019902958
7364860 26 18339637841471404395
81228 2 17400074670022566906
84936 31 18413382142354950205

> <PUBCHEM_SHAPE_MULTIPOLES>
420.08
5.93
3.99
1.49
5.83
3.78
-0.16
-0.84
-1.46
-4.07
0.26
0.28
-0.94
0.87

> <PUBCHEM_SHAPE_SELFOVERLAP>
901.538

> <PUBCHEM_SHAPE_VOLUME>
233.1

> <PUBCHEM_COORDINATE_TYPE>
2
5
10

$$$$

12947024
  -OEChem-12311612573D

 30 32  0     0  0  0  0  0  0999 V2000
   -1.5209   -4.3401    0.9920 Br  0  0  0  0  0  0  0  0  0  0  0  0
    2.6867    1.5730    1.4233 F   0  0  0  0  0  0  0  0  0  0  0  0
   -2.0915    3.7043   -0.7316 O   0  0  0  0  0  0  0  0  0  0  0  0
   -2.4106    1.4371   -0.7598 N   0  0  0  0  0  0  0  0  0  0  0  0
    0.2432    1.8648    0.6165 N   0  0  0  0  0  0  0  0  0  0  0  0
   -0.8961   -0.2877    0.2066 C   0  0  0  0  0  0  0  0  0  0  0  0
    0.2888    0.6208    0.2803 C   0  0  0  0  0  0  0  0  0  0  0  0
   -2.1114    0.1146   -0.3714 C   0  0  0  0  0  0  0  0  0  0  0  0
    1.6282    0.0808   -0.0919 C   0  0  0  0  0  0  0  0  0  0  0  0
   -0.7372   -1.6177    0.6299 C   0  0  0  0  0  0  0  0  0  0  0  0
   -1.0277    2.4438    0.9940 C   0  0  0  0  0  0  0  0  0  0  0  0
   -3.1047   -0.8466   -0.6123 C   0  0  0  0  0  0  0  0  0  0  0  0
   -1.8612    2.5937   -0.2508 C   0  0  0  0  0  0  0  0  0  0  0  0
   -1.7533   -2.5510    0.4285 C   0  0  0  0  0  0  0  0  0  0  0  0
   -2.9293   -2.1699   -0.2082 C   0  0  0  0  0  0  0  0  0  0  0  0
    2.7696    0.5949    0.5100 C   0  0  0  0  0  0  0  0  0  0  0  0
    1.7174   -0.9324   -1.0382 C   0  0  0  0  0  0  0  0  0  0  0  0
    4.0209    0.0875    0.1601 C   0  0  0  0  0  0  0  0  0  0  0  0
    2.9687   -1.4398   -1.3880 C   0  0  0  0  0  0  0  0  0  0  0  0
    4.1204   -0.9297   -0.7889 C   0  0  0  0  0  0  0  0  0  0  0  0
    0.1817   -1.9334    1.1199 H   0  0  0  0  0  0  0  0  0  0  0  0
   -3.1568    1.5526   -1.4409 H   0  0  0  0  0  0  0  0  0  0  0  0
   -0.8545    3.4391    1.4175 H   0  0  0  0  0  0  0  0  0  0  0  0
   -1.5546    1.8658    1.7617 H   0  0  0  0  0  0  0  0  0  0  0  0
   -4.0419   -0.5657   -1.0883 H   0  0  0  0  0  0  0  0  0  0  0  0
   -3.7258   -2.8871   -0.3890 H   0  0  0  0  0  0  0  0  0  0  0  0
    0.8492   -1.3255   -1.5584 H   0  0  0  0  0  0  0  0  0  0  0  0
    4.9176    0.4851    0.6263 H   0  0  0  0  0  0  0  0  0  0  0  0
    3.0474   -2.2251   -2.1342 H   0  0  0  0  0  0  0  0  0  0  0  0
    5.0949   -1.3231   -1.0631 H   0  0  0  0  0  0  0  0  0  0  0  0
  1 14  1  0  0  0  0
  2 16  1  0  0  0  0
  3 13  2  0  0  0  0
  4  8  1  0  0  0  0
  4 13  1  0  0  0  0
  4 22  1  0  0  0  0
  5  7  2  0  0  0  0
  5 11  1  0  0  0  0
  6  7  1  0  0  0  0
  6  8  2  0  0  0  0
  6 10  1  0  0  0  0
  7  9  1  0  0  0  0
  8 12  1  0  0  0  0
  9 16  1  0  0  0  0
  9 17  2  0  0  0  0
 10 14  2  0  0  0  0
 10 21  1  0  0  0  0
 11 13  1  0  0  0  0
 11 23  1  0  0  0  0
 11 24  1  0  0  0  0
 12 15  2  0  0  0  0
 12 25  1  0  0  0  0
 14 15  1  0  0  0  0
 15 26  1  0  0  0  0
 16 18  2  0  0  0  0
 17 19  1  0  0  0  0
 17 27  1  0  0  0  0
 18 20  1  0  0  0  0
 18 28  1  0  0  0  0
 19 20  2  0  0  0  0
 19 29  1  0  0  0  0
 20 30  1  0  0  0  0
M  END
> <PUBCHEM_COMPOUND_CID>
12947024

> <PUBCHEM_CONFORMER_RMSD>
0.6

> <PUBCHEM_CONFORMER_DIVERSEORDER>
1
2
5
6
7
8
3
4

> <PUBCHEM_MMFF94_PARTIAL_CHARGES>
28
1 -0.11
10 -0.15
11 0.31
12 -0.15
13 0.57
14 0.11
15 -0.15
16 0.19
17 -0.15
18 -0.15
19 -0.15
2 -0.19
20 -0.15
21 0.15
22 0.37
25 0.15
26 0.15
27 0.15
28 0.15
29 0.15
3 -0.57
30 0.15
4 -0.55
5 -0.7
6 0.09
7 0.28
8 0.12
9 0.09

> <PUBCHEM_EFFECTIVE_ROTOR_COUNT>
1.4

> <PUBCHEM_PHARMACOPHORE_FEATURES>
7
1 1 hydrophobe
1 3 acceptor
1 4 donor
1 5 acceptor
6 6 8 10 12 14 15 rings
6 9 16 17 18 19 20 rings
7 4 5 6 7 8 11 13 rings

> <PUBCHEM_HEAVY_ATOM_COUNT>
20

> <PUBCHEM_ATOM_DEF_STEREO_COUNT>
0

> <PUBCHEM_ATOM_UDEF_STEREO_COUNT>
0

> <PUBCHEM_BOND_DEF_STEREO_COUNT>
0

> <PUBCHEM_BOND_UDEF_STEREO_COUNT>
0

> <PUBCHEM_ISOTOPIC_ATOM_COUNT>
0

> <PUBCHEM_COMPONENT_COUNT>
1

> <PUBCHEM_CACTVS_TAUTO_COUNT>
3

> <PUBCHEM_CONFORMER_ID>
00C58E5000000001

> <PUBCHEM_MMFF94_ENERGY>
76.2652

> <PUBCHEM_FEATURE_SELFOVERLAP>
35.531

> <PUBCHEM_SHAPE_FINGERPRINT>
10366900 7 18272372005428786990
10906281 52 18195244649121775545
11578080 2 15728056051956750452
11582403 64 16545444854730370496
116883 192 18411982502644193261
12173636 292 18263643957325380557
12500047 106 18265334997914188884
12553582 1 18049736400993179279
12730499 353 17616822033384208717
12788726 201 18409726253255107819
13140716 1 18195249042477498994
13294875 104 17691387625864771784
14022347 108 18261115231069030651
14223421 5 18271241720375951312
14790565 3 18337962190758440557
14863182 85 15738544499981766263
15415430 2 18410857663631338811
16752209 62 18335410219399710355
167882 2 17180808450640873957
16945 1 18333729139077126003
17357779 13 18270951449100425549
19049666 15 18343021043351000022
19591789 44 18123478181025821051
20510252 161 18411982434030055681
20600515 1 17825647105057259245
20645477 70 16968286605820693087
21285901 2 18272653458941120143
21452121 199 17829047963199405038
21665056 4 18192439575515112191
22182313 1 17989203772759478288
22802520 49 18201718435872724184
23402539 116 18339630218120706127
23419403 2 17345734387395542857
23557571 272 18339079405755250084
23559900 14 18412257351119271400
2748010 2 17909255128853540577
314173 41 17974853079388990403
46194498 28 17114897603908548639
7364860 26 17256813819882661099
81228 2 18410866481246488697
8809292 202 18341897368126258510
9709674 26 18343585123086561734

> <PUBCHEM_SHAPE_MULTIPOLES>
394.43
5.96
4.3
1.12
5.18
0.04
0.01
-2.57
-0.92
-4.47
0.69
0.36
-0.1
1.55

> <PUBCHEM_SHAPE_SELFOVERLAP>
857.704

> <PUBCHEM_SHAPE_VOLUME>
217.5

> <PUBCHEM_COORDINATE_TYPE>
2
5
10

$$$$

21930924
  -OEChem-12311612573D

 35 38  0     0  0  0  0  0  0999 V2000
   -1.1461    4.6320    0.6965 Br  0  0  0  0  0  0  0  0  0  0  0  0
   -1.2743   -0.3156   -2.0220 F   0  0  0  0  0  0  0  0  0  0  0  0
    2.2297   -0.4017   -0.0019 N   0  0  0  0  0  0  0  0  0  0  0  0
   -0.2020   -1.7282    1.2808 N   0  0  0  0  0  0  0  0  0  0  0  0
    3.0917   -2.3923    0.3851 N   0  0  0  0  0  0  0  0  0  0  0  0
    3.8643   -1.7672   -0.5631 N   0  0  0  0  0  0  0  0  0  0  0  0
    1.3915    0.7311    0.0933 C   0  0  0  0  0  0  0  0  0  0  0  0
    0.0615    0.6351    0.5481 C   0  0  0  0  0  0  0  0  0  0  0  0
    2.1338   -1.5603    0.7355 C   0  0  0  0  0  0  0  0  0  0  0  0
   -0.6702   -0.6648    0.7204 C   0  0  0  0  0  0  0  0  0  0  0  0
    1.1442   -1.7367    1.8202 C   0  0  0  0  0  0  0  0  0  0  0  0
    3.3562   -0.5728   -0.7641 C   0  0  0  0  0  0  0  0  0  0  0  0
    1.9227    1.9869   -0.2429 C   0  0  0  0  0  0  0  0  0  0  0  0
   -2.0566   -0.7692    0.1751 C   0  0  0  0  0  0  0  0  0  0  0  0
   -0.6787    1.8148    0.7412 C   0  0  0  0  0  0  0  0  0  0  0  0
    1.1631    3.1441   -0.0685 C   0  0  0  0  0  0  0  0  0  0  0  0
   -0.1289    3.0600    0.4380 C   0  0  0  0  0  0  0  0  0  0  0  0
    3.8570    0.3446   -1.8090 C   0  0  0  0  0  0  0  0  0  0  0  0
   -2.2886   -0.5864   -1.1882 C   0  0  0  0  0  0  0  0  0  0  0  0
   -3.1206   -1.0510    1.0320 C   0  0  0  0  0  0  0  0  0  0  0  0
   -3.5847   -0.6855   -1.6945 C   0  0  0  0  0  0  0  0  0  0  0  0
   -4.4166   -1.1499    0.5256 C   0  0  0  0  0  0  0  0  0  0  0  0
   -4.6486   -0.9670   -0.8375 C   0  0  0  0  0  0  0  0  0  0  0  0
    1.3136   -2.7029    2.3085 H   0  0  0  0  0  0  0  0  0  0  0  0
    1.2665   -0.9757    2.6005 H   0  0  0  0  0  0  0  0  0  0  0  0
    2.9515    2.1508   -0.5296 H   0  0  0  0  0  0  0  0  0  0  0  0
   -1.6993    1.7654    1.1154 H   0  0  0  0  0  0  0  0  0  0  0  0
    1.6086    4.1078   -0.3026 H   0  0  0  0  0  0  0  0  0  0  0  0
    3.0541    0.8185   -2.3803 H   0  0  0  0  0  0  0  0  0  0  0  0
    4.5332    1.0956   -1.3909 H   0  0  0  0  0  0  0  0  0  0  0  0
    4.4468   -0.2248   -2.5377 H   0  0  0  0  0  0  0  0  0  0  0  0
   -2.9541   -1.1921    2.0968 H   0  0  0  0  0  0  0  0  0  0  0  0
   -3.7651   -0.5431   -2.7559 H   0  0  0  0  0  0  0  0  0  0  0  0
   -5.2452   -1.3683    1.1929 H   0  0  0  0  0  0  0  0  0  0  0  0
   -5.6577   -1.0437   -1.2316 H   0  0  0  0  0  0  0  0  0  0  0  0
  1 17  1  0  0  0  0
  2 19  1  0  0  0  0
  3  7  1  0  0  0  0
  3  9  1  0  0  0  0
  3 12  1  0  0  0  0
  4 10  2  0  0  0  0
  4 11  1  0  0  0  0
  5  6  1  0  0  0  0
  5  9  2  0  0  0  0
  6 12  2  0  0  0  0
  7  8  2  0  0  0  0
  7 13  1  0  0  0  0
  8 10  1  0  0  0  0
  8 15  1  0  0  0  0
  9 11  1  0  0  0  0
 10 14  1  0  0  0  0
 11 24  1  0  0  0  0
 11 25  1  0  0  0  0
 12 18  1  0  0  0  0
 13 16  2  0  0  0  0
 13 26  1  0  0  0  0
 14 19  1  0  0  0  0
 14 20  2  0  0  0  0
 15 17  2  0  0  0  0
 15 27  1  0  0  0  0
 16 17  1  0  0  0  0
 16 28  1  0  0  0  0
 18 29  1  0  0  0  0
 18 30  1  0  0  0  0
 18 31  1  0  0  0  0
 19 21  2  0  0  0  0
 20 22  1  0  0  0  0
 20 32  1  0  0  0  0
 21 23  1  0  0  0  0
 21 33  1  0  0  0  0
 22 23  2  0  0  0  0
 22 34  1  0  0  0  0
 23 35  1  0  0  0  0
M  END
> <PUBCHEM_COMPOUND_CID>
21930924

> <PUBCHEM_CONFORMER_RMSD>
0.6

> <PUBCHEM_CONFORMER_DIVERSEORDER>
3
5
6
4
2
1

> <PUBCHEM_MMFF94_PARTIAL_CHARGES>
30
1 -0.11
10 0.28
11 0.43
12 0.01
13 -0.15
14 0.09
15 -0.15
16 -0.15
17 0.11
18 0.18
19 0.19
2 -0.19
20 -0.15
21 -0.15
22 -0.15
23 -0.15
26 0.15
27 0.15
28 0.15
3 0.33
32 0.15
33 0.15
34 0.15
35 0.15
4 -0.7
5 -0.34
6 -0.34
7 -0.02
8 0.09
9 0.01

> <PUBCHEM_EFFECTIVE_ROTOR_COUNT>
1.2

> <PUBCHEM_PHARMACOPHORE_FEATURES>
8
1 1 hydrophobe
1 4 acceptor
3 3 5 9 cation
3 3 6 12 cation
5 3 5 6 9 12 rings
6 14 19 20 21 22 23 rings
6 7 8 13 15 16 17 rings
7 3 4 7 8 9 10 11 rings

> <PUBCHEM_HEAVY_ATOM_COUNT>
23

> <PUBCHEM_ATOM_DEF_STEREO_COUNT>
0

> <PUBCHEM_ATOM_UDEF_STEREO_COUNT>
0

> <PUBCHEM_BOND_DEF_STEREO_COUNT>
0

> <PUBCHEM_BOND_UDEF_STEREO_COUNT>
0

> <PUBCHEM_ISOTOPIC_ATOM_COUNT>
0

> <PUBCHEM_COMPONENT_COUNT>
1

> <PUBCHEM_CACTVS_TAUTO_COUNT>
1

> <PUBCHEM_CONFORMER_ID>
014EA3AC00000003

> <PUBCHEM_MMFF94_ENERGY>
82.2984

> <PUBCHEM_FEATURE_SELFOVERLAP>
43.167

> <PUBCHEM_SHAPE_FINGERPRINT>
10165383 225 17107658444741057777
104564 63 18268427923817264889
10764073 3 15803472417926825160
10906281 52 18122072154731227352
11221954 11 13842270392394948854
12035759 4 18045496409183271649
12553582 1 18413394232624805438
12623949 98 17688906397811030627
12788726 201 18195525892149205401
13134695 92 18341044215907224197
13140716 1 18266734688827365544
13149001 5 18120102933378541986
13911987 19 18045241568063798156
15210252 30 17748825228331461965
15238133 3 17899109669403839477
15906896 17 17908421355611179201
16752209 62 18126273160763103855
16945 1 18337109076480896578
17138139 8 17260699060406065565
1813 80 18059862761350731447
18186145 218 18262236745835128907
19591789 44 16320623034799966211
20600515 1 14763806190148425899
21041028 32 18411140212597819393
22112679 90 18200324229401150841
221357 26 18335695053700041277
22620623 9 17914346675502451166
23402539 116 18339645529948433810
23419403 2 14220428583004393145
23558518 356 18117571630373501298
23559900 14 17977399540552216716
23598288 3 18053096225175631934
23598291 2 17917157220507228141
238 59 17617913156528412039
25 1 18048876595874714185
25147074 1 17898860041704678434
266924 87 18410296951636122716
3323516 105 18188211025909830219
3524813 1 17822288045473872463
474 4 17694210471893696913
6438718 38 17985555450721845553
7164475 11 18266743476520051438
7471813 234 18337379462263791254
81228 2 17834085594955238905
9981440 41 14058715875172861556

> <PUBCHEM_SHAPE_MULTIPOLES>
452.07
6.89
4.01
1.54
3.16
6.55
0.39
-5.12
2.84
-0.78
-1.36
0.22
-0.6
-0.63

> <PUBCHEM_SHAPE_SELFOVERLAP>
995.581

> <PUBCHEM_SHAPE_VOLUME>
247.6

> <PUBCHEM_COORDINATE_TYPE>
2
5
10

$$$$


3380
  -OEChem-12311612593D

 35 37  0     0  0  0  0  0  0999 V2000
   -3.4041    0.1925    1.5825 F   0  0  0  0  0  0  0  0  0  0  0  0
   -0.1834    4.4194   -0.0534 O   0  0  0  0  0  0  0  0  0  0  0  0
    3.8952   -3.1393    0.2259 O   0  5  0  0  0  0  0  0  0  0  0  0
    1.8810   -3.6096    0.9611 O   0  0  0  0  0  0  0  0  0  0  0  0
    1.1429    2.5665   -0.5410 N   0  0  0  0  0  0  0  0  0  0  0  0
   -1.3218    1.6064    0.9511 N   0  0  0  0  0  0  0  0  0  0  0  0
    2.7128   -2.8034    0.4782 N   0  3  0  0  0  0  0  0  0  0  0  0
    0.5762    0.2391    0.1902 C   0  0  0  0  0  0  0  0  0  0  0  0
    1.4919    1.1924   -0.3020 C   0  0  0  0  0  0  0  0  0  0  0  0
   -0.8742    0.5404    0.3785 C   0  0  0  0  0  0  0  0  0  0  0  0
    0.9939   -1.0760    0.4644 C   0  0  0  0  0  0  0  0  0  0  0  0
   -0.3537    2.5733    1.4241 C   0  0  0  0  0  0  0  0  0  0  0  0
    2.8021    0.7543   -0.5795 C   0  0  0  0  0  0  0  0  0  0  0  0
    0.1897    3.2717    0.2031 C   0  0  0  0  0  0  0  0  0  0  0  0
   -1.8848   -0.4294   -0.1344 C   0  0  0  0  0  0  0  0  0  0  0  0
    2.3036   -1.4707    0.2098 C   0  0  0  0  0  0  0  0  0  0  0  0
    3.2039   -0.5592   -0.3238 C   0  0  0  0  0  0  0  0  0  0  0  0
    1.8726    3.2904   -1.5819 C   0  0  0  0  0  0  0  0  0  0  0  0
   -3.1122   -0.5511    0.5056 C   0  0  0  0  0  0  0  0  0  0  0  0
   -1.5857   -1.2017   -1.2504 C   0  0  0  0  0  0  0  0  0  0  0  0
   -4.0548   -1.4587    0.0224 C   0  0  0  0  0  0  0  0  0  0  0  0
   -2.5283   -2.1094   -1.7335 C   0  0  0  0  0  0  0  0  0  0  0  0
   -3.7628   -2.2379   -1.0972 C   0  0  0  0  0  0  0  0  0  0  0  0
    0.2802   -1.7824    0.8838 H   0  0  0  0  0  0  0  0  0  0  0  0
    0.4414    2.1423    2.0423 H   0  0  0  0  0  0  0  0  0  0  0  0
   -0.8642    3.3131    2.0506 H   0  0  0  0  0  0  0  0  0  0  0  0
    3.5554    1.4355   -0.9676 H   0  0  0  0  0  0  0  0  0  0  0  0
    4.2339   -0.8274   -0.5453 H   0  0  0  0  0  0  0  0  0  0  0  0
    2.0114    2.6534   -2.4612 H   0  0  0  0  0  0  0  0  0  0  0  0
    2.8383    3.6143   -1.1817 H   0  0  0  0  0  0  0  0  0  0  0  0
    1.3231    4.1824   -1.8971 H   0  0  0  0  0  0  0  0  0  0  0  0
   -0.6499   -1.1039   -1.7925 H   0  0  0  0  0  0  0  0  0  0  0  0
   -5.0160   -1.5583    0.5177 H   0  0  0  0  0  0  0  0  0  0  0  0
   -2.3044   -2.7104   -2.6100 H   0  0  0  0  0  0  0  0  0  0  0  0
   -4.4975   -2.9433   -1.4745 H   0  0  0  0  0  0  0  0  0  0  0  0
  1 19  1  0  0  0  0
  2 14  2  0  0  0  0
  3  7  1  0  0  0  0
  4  7  2  0  0  0  0
  5  9  1  0  0  0  0
  5 14  1  0  0  0  0
  5 18  1  0  0  0  0
  6 10  2  0  0  0  0
  6 12  1  0  0  0  0
  7 16  1  0  0  0  0
  8  9  2  0  0  0  0
  8 10  1  0  0  0  0
  8 11  1  0  0  0  0
  9 13  1  0  0  0  0
 10 15  1  0  0  0  0
 11 16  2  0  0  0  0
 11 24  1  0  0  0  0
 12 14  1  0  0  0  0
 12 25  1  0  0  0  0
 12 26  1  0  0  0  0
 13 17  2  0  0  0  0
 13 27  1  0  0  0  0
 15 19  1  0  0  0  0
 15 20  2  0  0  0  0
 16 17  1  0  0  0  0
 17 28  1  0  0  0  0
 18 29  1  0  0  0  0
 18 30  1  0  0  0  0
 18 31  1  0  0  0  0
 19 21  2  0  0  0  0
 20 22  1  0  0  0  0
 20 32  1  0  0  0  0
 21 23  1  0  0  0  0
 21 33  1  0  0  0  0
 22 23  2  0  0  0  0
 22 34  1  0  0  0  0
 23 35  1  0  0  0  0
M  CHG  2   3  -1   7   1
M  END
> <PUBCHEM_COMPOUND_CID>
3380

> <PUBCHEM_CONFORMER_RMSD>
0.6

> <PUBCHEM_CONFORMER_DIVERSEORDER>
2
1
7
8
4
3
6
5

> <PUBCHEM_MMFF94_PARTIAL_CHARGES>
30
1 -0.19
10 0.28
11 -0.15
12 0.31
13 -0.15
14 0.57
15 0.09
16 0.13
17 -0.15
18 0.3
19 0.19
2 -0.57
20 -0.15
21 -0.15
22 -0.15
23 -0.15
24 0.15
27 0.15
28 0.15
3 -0.52
32 0.15
33 0.15
34 0.15
35 0.15
4 -0.52
5 -0.48
6 -0.7
7 0.91
8 0.09
9 0.12

> <PUBCHEM_EFFECTIVE_ROTOR_COUNT>
2.4

> <PUBCHEM_PHARMACOPHORE_FEATURES>
8
1 2 acceptor
1 3 acceptor
1 3 anion
1 4 acceptor
1 6 acceptor
6 15 19 20 21 22 23 rings
6 8 9 11 13 16 17 rings
7 5 6 8 9 10 12 14 rings

> <PUBCHEM_HEAVY_ATOM_COUNT>
23

> <PUBCHEM_ATOM_DEF_STEREO_COUNT>
0

> <PUBCHEM_ATOM_UDEF_STEREO_COUNT>
0

> <PUBCHEM_BOND_DEF_STEREO_COUNT>
0

> <PUBCHEM_BOND_UDEF_STEREO_COUNT>
0

> <PUBCHEM_ISOTOPIC_ATOM_COUNT>
0

> <PUBCHEM_COMPONENT_COUNT>
1

> <PUBCHEM_CACTVS_TAUTO_COUNT>
1

> <PUBCHEM_CONFORMER_ID>
00000D3400000002

> <PUBCHEM_MMFF94_ENERGY>
94.6262

> <PUBCHEM_FEATURE_SELFOVERLAP>
40.691

> <PUBCHEM_SHAPE_FINGERPRINT>
1100329 8 17977662340709599208
11578080 2 18058425682495036657
12553582 1 18411419492456169842
12730499 353 17758397761873888867
13004483 165 18193826055482731107
13009979 54 17988935469714462643
13140716 1 18269274560534157267
13533116 47 18195241346941408199
13583140 156 18262253217641487843
13681431 1 18261657255704103360
13911987 19 17970648483063770796
13965767 371 17771654285311141537
14787075 74 17914893382106402056
15375462 189 18342463689766462691
16728300 4 15442141840004059458
16945 1 18261673795491258916
19591789 44 17400651917853674578
20291156 8 18413106134755874286
21452121 199 18336808849803695754
21634736 98 17912367820486016807
22112679 90 17916599742231450129
2255824 54 18122902298361453453
23419403 2 17034375797075738208
23598291 2 18128553715446275885
23728640 28 17546434583911190914
238 59 17905042908560963187
257057 1 18340197505885614048
2748010 2 16249435167418415921
34934 24 18412546491969163737
352729 6 17475522672520893952
474 4 17834670878870695045
6442390 28 17183348855140602891
6992083 37 18125169229350184417
7097593 13 18341897415603332111
81228 2 17903332837246164856
90316 7 18271244898525195403
9981440 41 15542615882586915744

> <PUBCHEM_SHAPE_MULTIPOLES>
433.5
6.06
4.79
1.29
6.21
0.92
-0.2
2.09
-1.62
-5.43
0.95
0.5
-0.29
-1.74

> <PUBCHEM_SHAPE_SELFOVERLAP>
955.787

> <PUBCHEM_SHAPE_VOLUME>
232.9

> <PUBCHEM_COORDINATE_TYPE>
2
5
10

$$$$

3033985
  -OEChem-12311612593D

 35 37  0     1  0  0  0  0  0999 V2000
    1.8574   -1.1014   -2.3544 Cl  0  0  0  0  0  0  0  0  0  0  0  0
    3.1027    3.1030   -0.5548 O   0  0  0  0  0  0  0  0  0  0  0  0
   -5.0388    0.5488   -0.0764 O   0  5  0  0  0  0  0  0  0  0  0  0
   -3.9890   -1.0580    0.9891 O   0  0  0  0  0  0  0  0  0  0  0  0
    0.9010    2.5684   -0.8268 N   0  0  0  0  0  0  0  0  0  0  0  0
    2.0253    0.3614    0.8917 N   0  0  0  0  0  0  0  0  0  0  0  0
   -3.9810    0.0087    0.3283 N   0  3  0  0  0  0  0  0  0  0  0  0
   -0.3090    0.6180    0.1363 C   0  0  0  0  0  0  0  0  0  0  0  0
    2.0779    1.7820    1.1847 C   0  0  2  0  0  0  0  0  0  0  0  0
    0.9343   -0.1523    0.4367 C   0  0  0  0  0  0  0  0  0  0  0  0
   -0.2765    1.8484   -0.5385 C   0  0  0  0  0  0  0  0  0  0  0  0
    2.0990    2.5189   -0.1432 C   0  0  0  0  0  0  0  0  0  0  0  0
    0.9510   -1.6189    0.1667 C   0  0  0  0  0  0  0  0  0  0  0  0
   -1.5458    0.0262    0.4413 C   0  0  0  0  0  0  0  0  0  0  0  0
   -1.4797    2.4111   -0.9906 C   0  0  0  0  0  0  0  0  0  0  0  0
    3.3472    2.0397    1.9907 C   0  0  0  0  0  0  0  0  0  0  0  0
   -2.7364    0.6232    0.0288 C   0  0  0  0  0  0  0  0  0  0  0  0
   -2.7027    1.8056   -0.7025 C   0  0  0  0  0  0  0  0  0  0  0  0
    1.3537   -2.1307   -1.0623 C   0  0  0  0  0  0  0  0  0  0  0  0
    0.5495   -2.4713    1.1904 C   0  0  0  0  0  0  0  0  0  0  0  0
    1.3552   -3.5102   -1.2700 C   0  0  0  0  0  0  0  0  0  0  0  0
    0.5510   -3.8506    0.9825 C   0  0  0  0  0  0  0  0  0  0  0  0
    0.9537   -4.3700   -0.2477 C   0  0  0  0  0  0  0  0  0  0  0  0
    1.2257    2.1152    1.7898 H   0  0  0  0  0  0  0  0  0  0  0  0
    0.8415    3.2498   -1.5795 H   0  0  0  0  0  0  0  0  0  0  0  0
   -1.5775   -0.9077    0.9926 H   0  0  0  0  0  0  0  0  0  0  0  0
   -1.4778    3.3475   -1.5449 H   0  0  0  0  0  0  0  0  0  0  0  0
    3.3188    1.4950    2.9406 H   0  0  0  0  0  0  0  0  0  0  0  0
    4.2424    1.7118    1.4496 H   0  0  0  0  0  0  0  0  0  0  0  0
    3.4605    3.1065    2.2110 H   0  0  0  0  0  0  0  0  0  0  0  0
   -3.6079    2.2918   -1.0571 H   0  0  0  0  0  0  0  0  0  0  0  0
    0.2440   -2.0816    2.1580 H   0  0  0  0  0  0  0  0  0  0  0  0
    1.6662   -3.9312   -2.2228 H   0  0  0  0  0  0  0  0  0  0  0  0
    0.2408   -4.5202    1.7793 H   0  0  0  0  0  0  0  0  0  0  0  0
    0.9552   -5.4440   -0.4092 H   0  0  0  0  0  0  0  0  0  0  0  0
  1 19  1  0  0  0  0
  2 12  2  0  0  0  0
  3  7  1  0  0  0  0
  4  7  2  0  0  0  0
  5 11  1  0  0  0  0
  5 12  1  0  0  0  0
  5 25  1  0  0  0  0
  6  9  1  0  0  0  0
  6 10  2  0  0  0  0
  7 17  1  0  0  0  0
  8 10  1  0  0  0  0
  8 11  2  0  0  0  0
  8 14  1  0  0  0  0
  9 12  1  0  0  0  0
  9 16  1  0  0  0  0
  9 24  1  0  0  0  0
 10 13  1  0  0  0  0
 11 15  1  0  0  0  0
 13 19  1  0  0  0  0
 13 20  2  0  0  0  0
 14 17  2  0  0  0  0
 14 26  1  0  0  0  0
 15 18  2  0  0  0  0
 15 27  1  0  0  0  0
 16 28  1  0  0  0  0
 16 29  1  0  0  0  0
 16 30  1  0  0  0  0
 17 18  1  0  0  0  0
 18 31  1  0  0  0  0
 19 21  2  0  0  0  0
 20 22  1  0  0  0  0
 20 32  1  0  0  0  0
 21 23  1  0  0  0  0
 21 33  1  0  0  0  0
 22 23  2  0  0  0  0
 22 34  1  0  0  0  0
 23 35  1  0  0  0  0
M  CHG  2   3  -1   7   1
M  END
> <PUBCHEM_COMPOUND_CID>
3033985

> <PUBCHEM_CONFORMER_RMSD>
0.6

> <PUBCHEM_CONFORMER_DIVERSEORDER>
1
5
7
6
4
8
2
3

> <PUBCHEM_MMFF94_PARTIAL_CHARGES>
30
1 -0.18
10 0.28
11 0.12
12 0.57
13 0.09
14 -0.15
15 -0.15
17 0.13
18 -0.15
19 0.18
2 -0.57
20 -0.15
21 -0.15
22 -0.15
23 -0.15
25 0.37
26 0.15
27 0.15
3 -0.52
31 0.15
32 0.15
33 0.15
34 0.15
35 0.15
4 -0.52
5 -0.55
6 -0.7
7 0.91
8 0.09
9 0.31

> <PUBCHEM_EFFECTIVE_ROTOR_COUNT>
2.4

> <PUBCHEM_PHARMACOPHORE_FEATURES>
9
1 2 acceptor
1 3 acceptor
1 3 anion
1 4 acceptor
1 5 donor
1 6 acceptor
6 13 19 20 21 22 23 rings
6 8 11 14 15 17 18 rings
7 5 6 8 9 10 11 12 rings

> <PUBCHEM_HEAVY_ATOM_COUNT>
23

> <PUBCHEM_ATOM_DEF_STEREO_COUNT>
1

> <PUBCHEM_ATOM_UDEF_STEREO_COUNT>
0

> <PUBCHEM_BOND_DEF_STEREO_COUNT>
0

> <PUBCHEM_BOND_UDEF_STEREO_COUNT>
0

> <PUBCHEM_ISOTOPIC_ATOM_COUNT>
0

> <PUBCHEM_COMPONENT_COUNT>
1

> <PUBCHEM_CACTVS_TAUTO_COUNT>
3

> <PUBCHEM_CONFORMER_ID>
002E4B8100000001

> <PUBCHEM_MMFF94_ENERGY>
91.1553

> <PUBCHEM_FEATURE_SELFOVERLAP>
45.764

> <PUBCHEM_SHAPE_FINGERPRINT>
104564 63 17257937520597404066
11578080 2 16592511528826475406
12035758 1 18341059600902045970
12363563 72 17192891018241254855
12553582 1 17617944625896428651
12788726 201 17255678019991753458
12839892 36 18265597948596705803
13140716 1 18339912809583211435
13533116 47 18271812268770312153
13681431 1 18054219930380404064
14115302 16 17108758544425399559
14787075 74 18266187119547788030
14863182 85 18263656215541695285
15338160 23 17046517914546028192
15906896 17 17762892564975493114
17138139 8 17123350614800382711
19591789 44 18408886265199953938
20028762 73 17838623610694167863
20775438 99 17758072023201343845
20905425 154 17908137686275094860
21452121 199 17902231113663005310
21524375 3 18268698584076815544
21731228 192 18197761388092812520
22182313 1 18042395830208111285
22620623 9 17402640909093499068
22956985 138 18262505997103534650
23184049 29 17687738338013670843
23419403 2 17050548577932764302
23557571 272 17046253507848036658
23559900 14 18190174594763202829
23598288 3 17689148337681326768
25147074 1 17321247349103026008
2748010 2 18046370748787532291
5845 1 13047601455637703688
59554788 248 18189595280683982925
6438718 38 17622443165909698244
6669772 16 18272082817170685246
7364860 26 18342173319695957249
81228 2 17404271475893523968
84936 31 18059845126167521597

> <PUBCHEM_SHAPE_MULTIPOLES>
442.65
5.5
5.13
1.57
2.28
3.59
0.29
-6.89
0.96
-0.5
-1.65
-1.09
0.54
1.04

> <PUBCHEM_SHAPE_SELFOVERLAP>
962.626

> <PUBCHEM_SHAPE_VOLUME>
240.9

> <PUBCHEM_COORDINATE_TYPE>
2
5
10

$$$$

4616
  -OEChem-12311613003D

 31 33  0     1  0  0  0  0  0999 V2000
   -0.1439    4.4764   -1.0800 Cl  0  0  0  0  0  0  0  0  0  0  0  0
    2.0677   -3.1800   -1.3667 O   0  0  0  0  0  0  0  0  0  0  0  0
    2.9712   -2.6678    1.0456 O   0  0  0  0  0  0  0  0  0  0  0  0
    2.4790   -0.4398    0.9569 N   0  0  0  0  0  0  0  0  0  0  0  0
    0.2518   -1.7970   -0.5518 N   0  0  0  0  0  0  0  0  0  0  0  0
    0.5409    0.6254   -0.1840 C   0  0  0  0  0  0  0  0  0  0  0  0
   -0.2462   -0.6403   -0.2772 C   0  0  0  0  0  0  0  0  0  0  0  0
    1.7747    0.6859    0.4829 C   0  0  0  0  0  0  0  0  0  0  0  0
   -1.7114   -0.5938   -0.0029 C   0  0  0  0  0  0  0  0  0  0  0  0
    1.6704   -1.9165   -0.8383 C   0  0  1  0  0  0  0  0  0  0  0  0
   -0.0366    1.8043   -0.6836 C   0  0  0  0  0  0  0  0  0  0  0  0
    2.3563    1.9383    0.7308 C   0  0  0  0  0  0  0  0  0  0  0  0
    2.4037   -1.7318    0.4791 C   0  0  0  0  0  0  0  0  0  0  0  0
    0.5789    3.0375   -0.4725 C   0  0  0  0  0  0  0  0  0  0  0  0
    1.7655    3.1065    0.2493 C   0  0  0  0  0  0  0  0  0  0  0  0
   -2.2128    0.3472    0.8874 C   0  0  0  0  0  0  0  0  0  0  0  0
   -2.5575   -1.4916   -0.6414 C   0  0  0  0  0  0  0  0  0  0  0  0
   -3.5832    0.3910    1.1439 C   0  0  0  0  0  0  0  0  0  0  0  0
   -3.9280   -1.4476   -0.3849 C   0  0  0  0  0  0  0  0  0  0  0  0
   -4.4407   -0.5063    0.5077 C   0  0  0  0  0  0  0  0  0  0  0  0
    1.9970   -1.1685   -1.5703 H   0  0  0  0  0  0  0  0  0  0  0  0
    3.1643   -0.2697    1.6887 H   0  0  0  0  0  0  0  0  0  0  0  0
   -0.9713    1.7688   -1.2398 H   0  0  0  0  0  0  0  0  0  0  0  0
    3.2959    2.0136    1.2741 H   0  0  0  0  0  0  0  0  0  0  0  0
    2.2495    4.0614    0.4373 H   0  0  0  0  0  0  0  0  0  0  0  0
   -1.5735    1.0342    1.4337 H   0  0  0  0  0  0  0  0  0  0  0  0
   -2.1826   -2.2273   -1.3475 H   0  0  0  0  0  0  0  0  0  0  0  0
   -3.9817    1.1175    1.8460 H   0  0  0  0  0  0  0  0  0  0  0  0
   -4.5962   -2.1451   -0.8814 H   0  0  0  0  0  0  0  0  0  0  0  0
   -5.5075   -0.4732    0.7086 H   0  0  0  0  0  0  0  0  0  0  0  0
    3.0132   -3.1203   -1.5871 H   0  0  0  0  0  0  0  0  0  0  0  0
  1 14  1  0  0  0  0
  2 10  1  0  0  0  0
  2 31  1  0  0  0  0
  3 13  2  0  0  0  0
  4  8  1  0  0  0  0
  4 13  1  0  0  0  0
  4 22  1  0  0  0  0
  5  7  2  0  0  0  0
  5 10  1  0  0  0  0
  6  7  1  0  0  0  0
  6  8  2  0  0  0  0
  6 11  1  0  0  0  0
  7  9  1  0  0  0  0
  8 12  1  0  0  0  0
  9 16  2  0  0  0  0
  9 17  1  0  0  0  0
 10 13  1  0  0  0  0
 10 21  1  0  0  0  0
 11 14  2  0  0  0  0
 11 23  1  0  0  0  0
 12 15  2  0  0  0  0
 12 24  1  0  0  0  0
 14 15  1  0  0  0  0
 15 25  1  0  0  0  0
 16 18  1  0  0  0  0
 16 26  1  0  0  0  0
 17 19  2  0  0  0  0
 17 27  1  0  0  0  0
 18 20  2  0  0  0  0
 18 28  1  0  0  0  0
 19 20  1  0  0  0  0
 19 29  1  0  0  0  0
 20 30  1  0  0  0  0
M  END
> <PUBCHEM_COMPOUND_CID>
4616

> <PUBCHEM_CONFORMER_RMSD>
0.6

> <PUBCHEM_CONFORMER_DIVERSEORDER>
1
2

> <PUBCHEM_MMFF94_PARTIAL_CHARGES>
30
1 -0.18
10 0.59
11 -0.15
12 -0.15
13 0.57
14 0.18
15 -0.15
16 -0.15
17 -0.15
18 -0.15
19 -0.15
2 -0.68
20 -0.15
22 0.37
23 0.15
24 0.15
25 0.15
26 0.15
27 0.15
28 0.15
29 0.15
3 -0.57
30 0.15
31 0.4
4 -0.55
5 -0.7
6 0.09
7 0.28
8 0.12
9 0.09

> <PUBCHEM_EFFECTIVE_ROTOR_COUNT>
1.4

> <PUBCHEM_PHARMACOPHORE_FEATURES>
8
1 2 acceptor
1 2 donor
1 3 acceptor
1 4 donor
1 5 acceptor
6 6 8 11 12 14 15 rings
6 9 16 17 18 19 20 rings
7 4 5 6 7 8 10 13 rings

> <PUBCHEM_HEAVY_ATOM_COUNT>
20

> <PUBCHEM_ATOM_DEF_STEREO_COUNT>
0

> <PUBCHEM_ATOM_UDEF_STEREO_COUNT>
1

> <PUBCHEM_BOND_DEF_STEREO_COUNT>
0

> <PUBCHEM_BOND_UDEF_STEREO_COUNT>
0

> <PUBCHEM_ISOTOPIC_ATOM_COUNT>
0

> <PUBCHEM_COMPONENT_COUNT>
1

> <PUBCHEM_CACTVS_TAUTO_COUNT>
3

> <PUBCHEM_CONFORMER_ID>
0000120800000001

> <PUBCHEM_MMFF94_ENERGY>
73.6694

> <PUBCHEM_FEATURE_SELFOVERLAP>
40.646

> <PUBCHEM_SHAPE_FINGERPRINT>
10090160 65 17834103531166213911
10382601 240 18409732897785630416
108634 29 17689984648927594085
11578080 2 17386555856852619100
11640471 11 17914627282959376833
116883 192 18194114114765937661
12035758 1 17906731402108162865
12553582 1 18338516335469430598
12716301 132 17615112292258659240
12788726 201 17901403194450538498
12954195 1 16172582191103537820
13134695 92 18261103080469036277
13140716 1 17905325478617327369
13681431 1 18263946413048357756
14178342 30 18123458642734399083
14790565 3 18192155017232658636
14844126 61 17541638540193154218
15420108 30 18129648828985199698
15490181 8 18051139390772866271
16945 1 18116986891449626329
17357779 13 18124583185500160965
17492 89 18342742948915173087
1813 80 18339372846305567310
19591789 44 18337951320127142524
20559304 39 18341338880733554641
20645476 183 17400646411673998237
20739085 24 18409728508260683112
21452121 99 17398667900982271842
21524375 3 17836369619892792805
22182313 1 17626655008883944478
2255824 54 18194128631623379797
23419403 2 17897416494163083180
23559900 14 17917438613948528383
2748010 2 17838884946294212686
3060560 45 18121217838311570868
3091708 16 9358432184093228954
352729 6 17475795828108704174
4409770 3 17401498047911911111
474 4 18120936372014348473
5283268 108 18265904553284841785
5312544 6 17689149432792544199
6992083 37 18127706928436923873
7097593 13 18341617022989769035
7364860 26 18270688669915861359
81228 2 17831870048754582001
8272917 22 18338519763200933783
90316 7 18122061996763748451

> <PUBCHEM_SHAPE_MULTIPOLES>
391.76
5.76
4.51
1.11
7.47
1.73
0.01
-0.46
-1.49
-4.84
1.55
-0.08
-0.11
-0.64

> <PUBCHEM_SHAPE_SELFOVERLAP>
854.282

> <PUBCHEM_SHAPE_VOLUME>
211.6

> <PUBCHEM_COORDINATE_TYPE>
2
5
10

$$$$
3058221
  -OEChem-12311613003D

 33 35  0     1  0  0  0  0  0999 V2000
    3.0135   -1.4085   -1.3778 F   0  0  0  0  0  0  0  0  0  0  0  0
    2.8665    2.8133   -1.4659 O   0  0  0  0  0  0  0  0  0  0  0  0
    2.2596    3.7113    0.9265 O   0  0  0  0  0  0  0  0  0  0  0  0
   -5.0674   -0.4954   -0.3654 O   0  5  0  0  0  0  0  0  0  0  0  0
   -3.5867   -1.8705   -1.2232 O   0  0  0  0  0  0  0  0  0  0  0  0
    0.1922    2.7424    0.9673 N   0  0  0  0  0  0  0  0  0  0  0  0
    1.9474    0.7863   -0.5061 N   0  0  0  0  0  0  0  0  0  0  0  0
   -3.8795   -0.8109   -0.6182 N   0  3  0  0  0  0  0  0  0  0  0  0
   -0.4637    0.5610   -0.0345 C   0  0  0  0  0  0  0  0  0  0  0  0
    0.9395    0.0642   -0.1543 C   0  0  0  0  0  0  0  0  0  0  0  0
   -0.7685    1.7860    0.5797 C   0  0  0  0  0  0  0  0  0  0  0  0
    1.2260   -1.3593    0.1859 C   0  0  0  0  0  0  0  0  0  0  0  0
   -1.5050   -0.2847   -0.4507 C   0  0  0  0  0  0  0  0  0  0  0  0
    1.7418    2.1796   -0.8600 C   0  0  1  0  0  0  0  0  0  0  0  0
   -2.1077    2.0939    0.8622 C   0  0  0  0  0  0  0  0  0  0  0  0
   -2.8344    0.0583   -0.2074 C   0  0  0  0  0  0  0  0  0  0  0  0
    1.4504    2.9244    0.4314 C   0  0  0  0  0  0  0  0  0  0  0  0
   -3.1350    1.2384    0.4642 C   0  0  0  0  0  0  0  0  0  0  0  0
    2.2630   -2.0263   -0.4542 C   0  0  0  0  0  0  0  0  0  0  0  0
    0.4501   -2.0020    1.1426 C   0  0  0  0  0  0  0  0  0  0  0  0
    2.5282   -3.3574   -0.1326 C   0  0  0  0  0  0  0  0  0  0  0  0
    0.7153   -3.3332    1.4641 C   0  0  0  0  0  0  0  0  0  0  0  0
    1.7544   -4.0109    0.8265 C   0  0  0  0  0  0  0  0  0  0  0  0
   -1.2630   -1.2114   -0.9669 H   0  0  0  0  0  0  0  0  0  0  0  0
    0.9134    2.2962   -1.5686 H   0  0  0  0  0  0  0  0  0  0  0  0
   -0.0965    3.4125    1.6757 H   0  0  0  0  0  0  0  0  0  0  0  0
   -2.3666    3.0222    1.3671 H   0  0  0  0  0  0  0  0  0  0  0  0
   -4.1574    1.5316    0.6879 H   0  0  0  0  0  0  0  0  0  0  0  0
   -0.3390   -1.4970    1.6916 H   0  0  0  0  0  0  0  0  0  0  0  0
    3.3377   -3.8847   -0.6287 H   0  0  0  0  0  0  0  0  0  0  0  0
    0.1193   -3.8393    2.2178 H   0  0  0  0  0  0  0  0  0  0  0  0
    1.9624   -5.0466    1.0785 H   0  0  0  0  0  0  0  0  0  0  0  0
    2.5924    3.7101   -1.7244 H   0  0  0  0  0  0  0  0  0  0  0  0
  1 19  1  0  0  0  0
  2 14  1  0  0  0  0
  2 33  1  0  0  0  0
  3 17  2  0  0  0  0
  4  8  1  0  0  0  0
  5  8  2  0  0  0  0
  6 11  1  0  0  0  0
  6 17  1  0  0  0  0
  6 26  1  0  0  0  0
  7 10  2  0  0  0  0
  7 14  1  0  0  0  0
  8 16  1  0  0  0  0
  9 10  1  0  0  0  0
  9 11  2  0  0  0  0
  9 13  1  0  0  0  0
 10 12  1  0  0  0  0
 11 15  1  0  0  0  0
 12 19  1  0  0  0  0
 12 20  2  0  0  0  0
 13 16  2  0  0  0  0
 13 24  1  0  0  0  0
 14 17  1  0  0  0  0
 14 25  1  0  0  0  0
 15 18  2  0  0  0  0
 15 27  1  0  0  0  0
 16 18  1  0  0  0  0
 18 28  1  0  0  0  0
 19 21  2  0  0  0  0
 20 22  1  0  0  0  0
 20 29  1  0  0  0  0
 21 23  1  0  0  0  0
 21 30  1  0  0  0  0
 22 23  2  0  0  0  0
 22 31  1  0  0  0  0
 23 32  1  0  0  0  0
M  CHG  2   4  -1   8   1
M  END
> <PUBCHEM_COMPOUND_CID>
3058221

> <PUBCHEM_CONFORMER_RMSD>
0.6

> <PUBCHEM_CONFORMER_DIVERSEORDER>
1
5
7
3
8
4
2
6

> <PUBCHEM_MMFF94_PARTIAL_CHARGES>
32
1 -0.19
10 0.28
11 0.12
12 0.09
13 -0.15
14 0.59
15 -0.15
16 0.13
17 0.57
18 -0.15
19 0.19
2 -0.68
20 -0.15
21 -0.15
22 -0.15
23 -0.15
24 0.15
26 0.37
27 0.15
28 0.15
29 0.15
3 -0.57
30 0.15
31 0.15
32 0.15
33 0.4
4 -0.52
5 -0.52
6 -0.55
7 -0.7
8 0.91
9 0.09

> <PUBCHEM_EFFECTIVE_ROTOR_COUNT>
2.4

> <PUBCHEM_PHARMACOPHORE_FEATURES>
11
1 2 acceptor
1 2 donor
1 3 acceptor
1 4 acceptor
1 4 anion
1 5 acceptor
1 6 donor
1 7 acceptor
6 12 19 20 21 22 23 rings
6 9 11 13 15 16 18 rings
7 6 7 9 10 11 14 17 rings

> <PUBCHEM_HEAVY_ATOM_COUNT>
23

> <PUBCHEM_ATOM_DEF_STEREO_COUNT>
0

> <PUBCHEM_ATOM_UDEF_STEREO_COUNT>
1

> <PUBCHEM_BOND_DEF_STEREO_COUNT>
0

> <PUBCHEM_BOND_UDEF_STEREO_COUNT>
0

> <PUBCHEM_ISOTOPIC_ATOM_COUNT>
0

> <PUBCHEM_COMPONENT_COUNT>
1

> <PUBCHEM_CACTVS_TAUTO_COUNT>
3

> <PUBCHEM_CONFORMER_ID>
002EAA2D00000001

> <PUBCHEM_MMFF94_ENERGY>
85.789

> <PUBCHEM_FEATURE_SELFOVERLAP>
55.953

> <PUBCHEM_SHAPE_FINGERPRINT>
108634 29 17260183818431396014
11578080 2 17825652366656370316
12035758 1 17042608089703856875
12553582 1 18050285869265772019
12716301 132 17330260088284687344
12788726 201 17545331778138301490
13004483 165 17469879987362904545
13140716 1 18265608982051567747
13931106 250 16964336592705607646
14081887 123 17762598609082446202
14787075 74 18336553720636530414
15042514 8 17547010724194182387
15375462 189 18046638806381375307
16945 1 18129669741070544917
19591789 44 17834399299345692611
20291156 8 18122343480509813035
20567600 347 18047456001276781939
21421861 104 18410849958866029849
21452121 199 18267851805404501843
21452121 99 17544472415354456152
21634736 98 18411985732491534303
22112679 90 17979640026350496282
2255824 54 18335423456320228479
22907989 373 16747343050963122565
23419403 2 17101205157578408512
23559900 14 18341319012457423339
23598288 3 17325222731591097339
238 59 18261683652605097459
257057 1 18122054308650891129
2748010 2 17117493601873494796
3091708 16 9576285050012658403
34934 24 18050006593079760048
352729 6 17762345012432621496
4409770 3 17399243439405716646
6992083 37 17765160462394974441
70251023 43 18413112736679874835
7097593 13 18267869385048347233
7364860 26 18341890809542463941
7471813 234 18199447923192505199
81228 2 17401187985574732448
90316 7 17691685589147098353
90525 40 16678944012962733474

> <PUBCHEM_SHAPE_MULTIPOLES>
427.64
5.85
5.07
1.19
0.03
3.78
0
-6.56
0.25
0.36
0.16
-0.29
0.06
-2.02

> <PUBCHEM_SHAPE_SELFOVERLAP>
947.204

> <PUBCHEM_SHAPE_VOLUME>
226.6

> <PUBCHEM_COORDINATE_TYPE>
2
5
10

$$$$
20317278
  -OEChem-12311613013D

 37 40  0     0  0  0  0  0  0999 V2000
   -1.4850    4.7455   -0.0066 O   0  5  0  0  0  0  0  0  0  0  0  0
   -2.8642    3.2086    0.7381 O   0  0  0  0  0  0  0  0  0  0  0  0
    2.3934   -0.2534   -0.0382 N   0  0  0  0  0  0  0  0  0  0  0  0
    0.2815   -2.0670    1.2145 N   0  0  0  0  0  0  0  0  0  0  0  0
    3.6729   -1.9792    0.4512 N   0  0  0  0  0  0  0  0  0  0  0  0
    4.3189   -1.2207   -0.4945 N   0  0  0  0  0  0  0  0  0  0  0  0
   -1.7362    3.5589    0.3145 N   0  3  0  0  0  0  0  0  0  0  0  0
    1.3144    0.6577   -0.0128 C   0  0  0  0  0  0  0  0  0  0  0  0
    0.0248    0.2709    0.4021 C   0  0  0  0  0  0  0  0  0  0  0  0
    2.5365   -1.3807    0.7389 C   0  0  0  0  0  0  0  0  0  0  0  0
   -0.3953   -1.1572    0.5995 C   0  0  0  0  0  0  0  0  0  0  0  0
    1.5711   -1.7489    1.7970 C   0  0  0  0  0  0  0  0  0  0  0  0
    3.5587   -0.1821   -0.7567 C   0  0  0  0  0  0  0  0  0  0  0  0
    1.5563    1.9918   -0.3789 C   0  0  0  0  0  0  0  0  0  0  0  0
   -0.9735    1.2531    0.5266 C   0  0  0  0  0  0  0  0  0  0  0  0
   -1.6977   -1.5946    0.0141 C   0  0  0  0  0  0  0  0  0  0  0  0
   -0.7124    2.5821    0.1946 C   0  0  0  0  0  0  0  0  0  0  0  0
    0.5450    2.9471   -0.2728 C   0  0  0  0  0  0  0  0  0  0  0  0
    3.8771    0.7949   -1.8188 C   0  0  0  0  0  0  0  0  0  0  0  0
   -1.9077   -1.5084   -1.3622 C   0  0  0  0  0  0  0  0  0  0  0  0
   -2.7041   -2.0901    0.8434 C   0  0  0  0  0  0  0  0  0  0  0  0
   -3.1240   -1.9171   -1.9093 C   0  0  0  0  0  0  0  0  0  0  0  0
   -3.9203   -2.4990    0.2963 C   0  0  0  0  0  0  0  0  0  0  0  0
   -4.1302   -2.4124   -1.0801 C   0  0  0  0  0  0  0  0  0  0  0  0
    1.9380   -2.6353    2.3266 H   0  0  0  0  0  0  0  0  0  0  0  0
    1.4841   -0.9577    2.5516 H   0  0  0  0  0  0  0  0  0  0  0  0
    2.5307    2.3797   -0.6382 H   0  0  0  0  0  0  0  0  0  0  0  0
   -1.9627    0.9602    0.8722 H   0  0  0  0  0  0  0  0  0  0  0  0
    0.7861    3.9746   -0.5344 H   0  0  0  0  0  0  0  0  0  0  0  0
    3.0104    1.0538   -2.4332 H   0  0  0  0  0  0  0  0  0  0  0  0
    4.3458    1.6935   -1.4079 H   0  0  0  0  0  0  0  0  0  0  0  0
    4.6105    0.3556   -2.5061 H   0  0  0  0  0  0  0  0  0  0  0  0
   -1.1309   -1.1297   -2.0214 H   0  0  0  0  0  0  0  0  0  0  0  0
   -2.5546   -2.1593    1.9177 H   0  0  0  0  0  0  0  0  0  0  0  0
   -3.2871   -1.8508   -2.9810 H   0  0  0  0  0  0  0  0  0  0  0  0
   -4.7042   -2.8839    0.9418 H   0  0  0  0  0  0  0  0  0  0  0  0
   -5.0771   -2.7308   -1.5059 H   0  0  0  0  0  0  0  0  0  0  0  0
  1  7  1  0  0  0  0
  2  7  2  0  0  0  0
  3  8  1  0  0  0  0
  3 10  1  0  0  0  0
  3 13  1  0  0  0  0
  4 11  2  0  0  0  0
  4 12  1  0  0  0  0
  5  6  1  0  0  0  0
  5 10  2  0  0  0  0
  6 13  2  0  0  0  0
  7 17  1  0  0  0  0
  8  9  2  0  0  0  0
  8 14  1  0  0  0  0
  9 11  1  0  0  0  0
  9 15  1  0  0  0  0
 10 12  1  0  0  0  0
 11 16  1  0  0  0  0
 12 25  1  0  0  0  0
 12 26  1  0  0  0  0
 13 19  1  0  0  0  0
 14 18  2  0  0  0  0
 14 27  1  0  0  0  0
 15 17  2  0  0  0  0
 15 28  1  0  0  0  0
 16 20  2  0  0  0  0
 16 21  1  0  0  0  0
 17 18  1  0  0  0  0
 18 29  1  0  0  0  0
 19 30  1  0  0  0  0
 19 31  1  0  0  0  0
 19 32  1  0  0  0  0
 20 22  1  0  0  0  0
 20 33  1  0  0  0  0
 21 23  2  0  0  0  0
 21 34  1  0  0  0  0
 22 24  2  0  0  0  0
 22 35  1  0  0  0  0
 23 24  1  0  0  0  0
 23 36  1  0  0  0  0
 24 37  1  0  0  0  0
M  CHG  2   1  -1   7   1
M  END
> <PUBCHEM_COMPOUND_CID>
20317278

> <PUBCHEM_CONFORMER_RMSD>
0.6

> <PUBCHEM_CONFORMER_DIVERSEORDER>
2
1

> <PUBCHEM_MMFF94_PARTIAL_CHARGES>
32
1 -0.52
10 0.01
11 0.28
12 0.43
13 0.01
14 -0.15
15 -0.15
16 0.09
17 0.13
18 -0.15
19 0.18
2 -0.52
20 -0.15
21 -0.15
22 -0.15
23 -0.15
24 -0.15
27 0.15
28 0.15
29 0.15
3 0.33
33 0.15
34 0.15
35 0.15
36 0.15
37 0.15
4 -0.7
5 -0.34
6 -0.34
7 0.91
8 -0.02
9 0.09

> <PUBCHEM_EFFECTIVE_ROTOR_COUNT>
2.2

> <PUBCHEM_PHARMACOPHORE_FEATURES>
10
1 1 acceptor
1 1 anion
1 2 acceptor
1 4 acceptor
3 3 5 10 cation
3 3 6 13 cation
5 3 5 6 10 13 rings
6 16 20 21 22 23 24 rings
6 8 9 14 15 17 18 rings
7 3 4 8 9 10 11 12 rings

> <PUBCHEM_HEAVY_ATOM_COUNT>
24

> <PUBCHEM_ATOM_DEF_STEREO_COUNT>
0

> <PUBCHEM_ATOM_UDEF_STEREO_COUNT>
0

> <PUBCHEM_BOND_DEF_STEREO_COUNT>
0

> <PUBCHEM_BOND_UDEF_STEREO_COUNT>
0

> <PUBCHEM_ISOTOPIC_ATOM_COUNT>
0

> <PUBCHEM_COMPONENT_COUNT>
1

> <PUBCHEM_CACTVS_TAUTO_COUNT>
1

> <PUBCHEM_CONFORMER_ID>
0136045E00000002

> <PUBCHEM_MMFF94_ENERGY>
93.56

> <PUBCHEM_FEATURE_SELFOVERLAP>
53.4

> <PUBCHEM_SHAPE_FINGERPRINT>
104564 63 18411980230596047943
10906281 52 17760938732887431496
1100329 8 18410009901891659937
11578080 2 17632284700968604016
116883 192 18342740706303129327
11828532 37 14257927591666257757
12035759 4 18261946341315370343
12293681 160 17971200459170002288
12403259 327 14548195292810072695
12553582 1 18339648957026439222
12730499 353 17398104341392102907
12788726 201 18338229358844939539
13134695 92 18195238038855767151
13140716 1 18410003351770848905
13540713 5 18115313263897834906
13681431 1 18053368088031105089
13757389 114 17979377273848853820
13911987 19 17683542984548178364
14178342 30 18264191540334079746
14866123 147 17977659814499352234
15131766 46 15650763524836567462
15210252 30 17823130297309114141
15906896 17 18195524796800383523
16752209 62 18269825420323523047
17138139 8 17766515177196877773
1813 80 18058459848912143319
19591789 44 17546446674481245843
21041028 32 18410296956014641563
221357 26 18263633130319768071
22620623 9 18129675092863384342
23419403 2 17105310768640936266
23558518 356 18260556576367650882
23559900 14 17113557355064199420
238 59 17186131701869412719
25 1 17615684472186456925
25147074 1 18041563517080264762
266924 87 18193560188623675476
3060560 45 17112975163123346382
3323516 105 17899414465573374219
474 4 17332518485589898113
59025328 239 17628599176810690743
6438718 38 18201162044555818995
7164475 11 18410857638125233830
7471813 234 18337658802678763622
81228 2 18049692197363498235

> <PUBCHEM_SHAPE_MULTIPOLES>
457.27
6.85
4.72
1.4
1.88
7.64
0.35
-6.15
3.04
0.87
-1.08
0.14
-0.77
-1.09

> <PUBCHEM_SHAPE_SELFOVERLAP>
1021.011

> <PUBCHEM_SHAPE_VOLUME>
243

> <PUBCHEM_COORDINATE_TYPE>
2
5
10

$$$$

40113
  -OEChem-12311613013D

 30 32  0     0  0  0  0  0  0999 V2000
   -0.9007   -4.5930    0.2977 Br  0  0  0  0  0  0  0  0  0  0  0  0
    1.2790    1.4730   -2.1648 Cl  0  0  0  0  0  0  0  0  0  0  0  0
   -2.4889    3.4900   -0.0900 O   0  0  0  0  0  0  0  0  0  0  0  0
   -2.4788    1.2431   -0.5303 N   0  0  0  0  0  0  0  0  0  0  0  0
   -0.0170    1.7519    1.1431 N   0  0  0  0  0  0  0  0  0  0  0  0
   -0.8060   -0.4193    0.2700 C   0  0  0  0  0  0  0  0  0  0  0  0
    0.2290    0.6050    0.6076 C   0  0  0  0  0  0  0  0  0  0  0  0
   -2.0223   -0.0784   -0.3442 C   0  0  0  0  0  0  0  0  0  0  0  0
    1.6547    0.3167    0.2780 C   0  0  0  0  0  0  0  0  0  0  0  0
   -0.4895   -1.7723    0.4759 C   0  0  0  0  0  0  0  0  0  0  0  0
   -1.3809    2.0861    1.4909 C   0  0  0  0  0  0  0  0  0  0  0  0
   -2.8490   -1.0996   -0.8366 C   0  0  0  0  0  0  0  0  0  0  0  0
   -2.1372    2.3498    0.2161 C   0  0  0  0  0  0  0  0  0  0  0  0
   -1.3453   -2.7764    0.0247 C   0  0  0  0  0  0  0  0  0  0  0  0
   -2.5158   -2.4405   -0.6469 C   0  0  0  0  0  0  0  0  0  0  0  0
    2.2076    0.6748   -0.9469 C   0  0  0  0  0  0  0  0  0  0  0  0
    2.4254   -0.3261    1.2413 C   0  0  0  0  0  0  0  0  0  0  0  0
    3.5465    0.3869   -1.2117 C   0  0  0  0  0  0  0  0  0  0  0  0
    3.7643   -0.6140    0.9763 C   0  0  0  0  0  0  0  0  0  0  0  0
    4.3248   -0.2576   -0.2501 C   0  0  0  0  0  0  0  0  0  0  0  0
    0.4283   -2.0631    0.9773 H   0  0  0  0  0  0  0  0  0  0  0  0
   -3.1839    1.3830   -1.2497 H   0  0  0  0  0  0  0  0  0  0  0  0
   -1.3819    3.0027    2.0907 H   0  0  0  0  0  0  0  0  0  0  0  0
   -1.8730    1.3167    2.0968 H   0  0  0  0  0  0  0  0  0  0  0  0
   -3.7806   -0.8598   -1.3449 H   0  0  0  0  0  0  0  0  0  0  0  0
   -3.1871   -3.2093   -1.0206 H   0  0  0  0  0  0  0  0  0  0  0  0
    2.0051   -0.6001    2.2054 H   0  0  0  0  0  0  0  0  0  0  0  0
    3.9988    0.6579   -2.1625 H   0  0  0  0  0  0  0  0  0  0  0  0
    4.3710   -1.1137    1.7259 H   0  0  0  0  0  0  0  0  0  0  0  0
    5.3675   -0.4815   -0.4560 H   0  0  0  0  0  0  0  0  0  0  0  0
  1 14  1  0  0  0  0
  2 16  1  0  0  0  0
  3 13  2  0  0  0  0
  4  8  1  0  0  0  0
  4 13  1  0  0  0  0
  4 22  1  0  0  0  0
  5  7  2  0  0  0  0
  5 11  1  0  0  0  0
  6  7  1  0  0  0  0
  6  8  2  0  0  0  0
  6 10  1  0  0  0  0
  7  9  1  0  0  0  0
  8 12  1  0  0  0  0
  9 16  1  0  0  0  0
  9 17  2  0  0  0  0
 10 14  2  0  0  0  0
 10 21  1  0  0  0  0
 11 13  1  0  0  0  0
 11 23  1  0  0  0  0
 11 24  1  0  0  0  0
 12 15  2  0  0  0  0
 12 25  1  0  0  0  0
 14 15  1  0  0  0  0
 15 26  1  0  0  0  0
 16 18  2  0  0  0  0
 17 19  1  0  0  0  0
 17 27  1  0  0  0  0
 18 20  1  0  0  0  0
 18 28  1  0  0  0  0
 19 20  2  0  0  0  0
 19 29  1  0  0  0  0
 20 30  1  0  0  0  0
M  END
> <PUBCHEM_COMPOUND_CID>
40113

> <PUBCHEM_CONFORMER_RMSD>
0.6

> <PUBCHEM_CONFORMER_DIVERSEORDER>
1
4
5
8
6
7
3
2

> <PUBCHEM_MMFF94_PARTIAL_CHARGES>
28
1 -0.11
10 -0.15
11 0.31
12 -0.15
13 0.57
14 0.11
15 -0.15
16 0.18
17 -0.15
18 -0.15
19 -0.15
2 -0.18
20 -0.15
21 0.15
22 0.37
25 0.15
26 0.15
27 0.15
28 0.15
29 0.15
3 -0.57
30 0.15
4 -0.55
5 -0.7
6 0.09
7 0.28
8 0.12
9 0.09

> <PUBCHEM_EFFECTIVE_ROTOR_COUNT>
1.4

> <PUBCHEM_PHARMACOPHORE_FEATURES>
7
1 1 hydrophobe
1 3 acceptor
1 4 donor
1 5 acceptor
6 6 8 10 12 14 15 rings
6 9 16 17 18 19 20 rings
7 4 5 6 7 8 11 13 rings

> <PUBCHEM_HEAVY_ATOM_COUNT>
20

> <PUBCHEM_ATOM_DEF_STEREO_COUNT>
0

> <PUBCHEM_ATOM_UDEF_STEREO_COUNT>
0

> <PUBCHEM_BOND_DEF_STEREO_COUNT>
0

> <PUBCHEM_BOND_UDEF_STEREO_COUNT>
0

> <PUBCHEM_ISOTOPIC_ATOM_COUNT>
0

> <PUBCHEM_COMPONENT_COUNT>
1

> <PUBCHEM_CACTVS_TAUTO_COUNT>
3

> <PUBCHEM_CONFORMER_ID>
00009CB100000001

> <PUBCHEM_MMFF94_ENERGY>
78.6295

> <PUBCHEM_FEATURE_SELFOVERLAP>
35.531

> <PUBCHEM_SHAPE_FINGERPRINT>
11578080 2 17681512031784697492
11640471 11 18041571260447376468
12173636 292 18338228276149411508
12363563 72 17844526819239218623
12500047 106 18269551655134907600
12553582 1 18195529430864965347
12592029 89 18048326543876712793
12788726 201 18339648935466817047
13140716 1 18124311868063407875
133893 2 17186467654174317649
13583140 156 17202179886495457458
14115302 16 18262794202224834839
14790565 3 18411990161209698785
15852999 172 17986680264033487476
16752209 62 18411125927299092691
167882 2 17544754526075613989
16945 1 18410847785053291499
18785283 64 17257947991981483729
20510252 161 18343297080619325075
20645476 183 18262242122743747776
20645477 70 16539319875021606447
21452121 199 17832977626547334570
23184049 29 18196082472465354810
23419403 2 16099598696404359854
23557571 272 18128817624106992256
23559900 14 17987508231366255570
23598291 2 17968095296514923994
3084891 72 18412254056605613903
314173 41 17762341709471187883
5845 1 15099608719287059673
6992083 37 18113618945879552212
7364860 26 16827563419510554411
77492 1 18113617859447933576
81228 2 18201731681599149809
90525 40 18261116222852696962
9709674 26 18273218590964943126

> <PUBCHEM_SHAPE_MULTIPOLES>
403.57
5.68
4.19
1.41
5.14
1.51
0.29
2.02
1.08
-4.93
-0.66
0.76
-0.55
-0.78

> <PUBCHEM_SHAPE_SELFOVERLAP>
863.604

> <PUBCHEM_SHAPE_VOLUME>
228.9

> <PUBCHEM_COORDINATE_TYPE>
2
5
10

$$$$

2094
  -OEChem-12311613023D

 14 15  0     0  0  0  0  0  0999 V2000
    1.8177    1.8841   -0.0135 O   0  0  0  0  0  0  0  0  0  0  0  0
   -2.1033   -0.6662   -0.0227 N   0  0  0  0  0  0  0  0  0  0  0  0
   -2.3796    0.6473    0.0180 N   0  0  0  0  0  0  0  0  0  0  0  0
    0.0355   -1.8203   -0.0004 N   0  0  0  0  0  0  0  0  0  0  0  0
    2.0055   -0.4224    0.0069 N   0  0  0  0  0  0  0  0  0  0  0  0
   -0.1352    0.5845    0.0054 C   0  0  0  0  0  0  0  0  0  0  0  0
   -0.7301   -0.7809   -0.0070 C   0  0  0  0  0  0  0  0  0  0  0  0
   -1.2163    1.3787    0.0068 C   0  0  0  0  0  0  0  0  0  0  0  0
    1.3104    0.7697   -0.0027 C   0  0  0  0  0  0  0  0  0  0  0  0
    1.3952   -1.5745    0.0095 C   0  0  0  0  0  0  0  0  0  0  0  0
   -1.2657    2.4553   -0.0134 H   0  0  0  0  0  0  0  0  0  0  0  0
   -2.7958   -1.3996    0.0464 H   0  0  0  0  0  0  0  0  0  0  0  0
   -3.2696    1.0424   -0.2523 H   0  0  0  0  0  0  0  0  0  0  0  0
    2.0309   -2.4754    0.0191 H   0  0  0  0  0  0  0  0  0  0  0  0
  1  9  2  0  0  0  0
  2  3  1  0  0  0  0
  2  7  1  0  0  0  0
  2 12  1  0  0  0  0
  3  8  1  0  0  0  0
  3 13  1  0  0  0  0
  4  7  2  0  0  0  0
  4 10  1  0  0  0  0
  5  9  1  0  0  0  0
  5 10  2  0  0  0  0
  6  7  1  0  0  0  0
  6  8  2  0  0  0  0
  6  9  1  0  0  0  0
  8 11  1  0  0  0  0
 10 14  1  0  0  0  0
M  END
> <PUBCHEM_COMPOUND_CID>
2094

> <PUBCHEM_CONFORMER_RMSD>
0.4

> <PUBCHEM_CONFORMER_DIVERSEORDER>
1

> <PUBCHEM_MMFF94_PARTIAL_CHARGES>
14
1 -0.57
10 0.6
11 0.15
12 0.4
13 0.4
14 0.06
2 -0.45
3 -0.5
4 -0.66
5 -0.66
6 0.03
7 0.49
8 -0.05
9 0.77

> <PUBCHEM_EFFECTIVE_ROTOR_COUNT>
0

> <PUBCHEM_PHARMACOPHORE_FEATURES>
7
1 1 acceptor
1 2 donor
1 3 donor
1 5 donor
3 2 4 7 cation
5 2 3 6 7 8 rings
6 4 5 6 7 9 10 rings

> <PUBCHEM_HEAVY_ATOM_COUNT>
10

> <PUBCHEM_ATOM_DEF_STEREO_COUNT>
0

> <PUBCHEM_ATOM_UDEF_STEREO_COUNT>
0

> <PUBCHEM_BOND_DEF_STEREO_COUNT>
0

> <PUBCHEM_BOND_UDEF_STEREO_COUNT>
0

> <PUBCHEM_ISOTOPIC_ATOM_COUNT>
0

> <PUBCHEM_COMPONENT_COUNT>
1

> <PUBCHEM_CACTVS_TAUTO_COUNT>
13

> <PUBCHEM_CONFORMER_ID>
0000082E00000001

> <PUBCHEM_MMFF94_ENERGY>
51.2911

> <PUBCHEM_FEATURE_SELFOVERLAP>
37.311

> <PUBCHEM_SHAPE_FINGERPRINT>
16945 1 18338516331115953799
18185500 45 18050849914113717130
21040471 1 18266740366710508416
23552423 10 18407760330701342375
241688 4 17618787950982402834
2748010 2 18337955717524423927
29004967 10 18192436264105616842
5084963 1 18201999910738489723

> <PUBCHEM_SHAPE_MULTIPOLES>
180
2.72
1.91
0.57
0.61
0.07
0
0.23
0
-0.63
0
0
0
-0.01

> <PUBCHEM_SHAPE_SELFOVERLAP>
396.902

> <PUBCHEM_SHAPE_VOLUME>
95

> <PUBCHEM_COORDINATE_TYPE>
2
5
10

$$$$
1688
  -OEChem-12311613033D

 33 35  0     0  0  0  0  0  0999 V2000
    0.6184   -4.4437    0.8418 Cl  0  0  0  0  0  0  0  0  0  0  0  0
   -5.8892   -0.0264   -0.8691 Cl  0  0  0  0  0  0  0  0  0  0  0  0
    2.7266    3.2986   -0.2417 O   0  0  0  0  0  0  0  0  0  0  0  0
    2.6065    1.0059   -0.6404 N   0  0  0  0  0  0  0  0  0  0  0  0
    0.2323    1.7983    1.0794 N   0  0  0  0  0  0  0  0  0  0  0  0
    0.8291   -0.4675    0.3304 C   0  0  0  0  0  0  0  0  0  0  0  0
    2.0776   -0.2871   -0.3005 C   0  0  0  0  0  0  0  0  0  0  0  0
   -0.1163    0.6614    0.5788 C   0  0  0  0  0  0  0  0  0  0  0  0
    1.6300    1.9907    1.4036 C   0  0  0  0  0  0  0  0  0  0  0  0
   -1.5535    0.4912    0.2178 C   0  0  0  0  0  0  0  0  0  0  0  0
    2.3553    2.1709    0.0939 C   0  0  0  0  0  0  0  0  0  0  0  0
    0.3938   -1.7544    0.6959 C   0  0  0  0  0  0  0  0  0  0  0  0
    2.8205   -1.4420   -0.6167 C   0  0  0  0  0  0  0  0  0  0  0  0
    3.5130    1.0990   -1.7848 C   0  0  0  0  0  0  0  0  0  0  0  0
    1.1648   -2.8738    0.3984 C   0  0  0  0  0  0  0  0  0  0  0  0
    2.3717   -2.7186   -0.2688 C   0  0  0  0  0  0  0  0  0  0  0  0
   -1.9018   -0.3403   -0.8395 C   0  0  0  0  0  0  0  0  0  0  0  0
   -2.5287    1.1644    0.9437 C   0  0  0  0  0  0  0  0  0  0  0  0
   -3.2459   -0.5009   -1.1763 C   0  0  0  0  0  0  0  0  0  0  0  0
   -3.8727    1.0037    0.6070 C   0  0  0  0  0  0  0  0  0  0  0  0
   -4.2314    0.1709   -0.4530 C   0  0  0  0  0  0  0  0  0  0  0  0
    2.0622    1.1860    2.0084 H   0  0  0  0  0  0  0  0  0  0  0  0
    1.7376    2.9093    1.9910 H   0  0  0  0  0  0  0  0  0  0  0  0
   -0.5515   -1.8882    1.2185 H   0  0  0  0  0  0  0  0  0  0  0  0
    3.7873   -1.3751   -1.1095 H   0  0  0  0  0  0  0  0  0  0  0  0
    3.1475    0.4796   -2.6100 H   0  0  0  0  0  0  0  0  0  0  0  0
    4.5133    0.7808   -1.4750 H   0  0  0  0  0  0  0  0  0  0  0  0
    3.5847    2.1296   -2.1448 H   0  0  0  0  0  0  0  0  0  0  0  0
    2.9862   -3.5803   -0.5173 H   0  0  0  0  0  0  0  0  0  0  0  0
   -1.1605   -0.8518   -1.4461 H   0  0  0  0  0  0  0  0  0  0  0  0
   -2.2740    1.8109    1.7789 H   0  0  0  0  0  0  0  0  0  0  0  0
   -3.5105   -1.1471   -2.0095 H   0  0  0  0  0  0  0  0  0  0  0  0
   -4.6301    1.5320    1.1805 H   0  0  0  0  0  0  0  0  0  0  0  0
  1 15  1  0  0  0  0
  2 21  1  0  0  0  0
  3 11  2  0  0  0  0
  4  7  1  0  0  0  0
  4 11  1  0  0  0  0
  4 14  1  0  0  0  0
  5  8  2  0  0  0  0
  5  9  1  0  0  0  0
  6  7  2  0  0  0  0
  6  8  1  0  0  0  0
  6 12  1  0  0  0  0
  7 13  1  0  0  0  0
  8 10  1  0  0  0  0
  9 11  1  0  0  0  0
  9 22  1  0  0  0  0
  9 23  1  0  0  0  0
 10 17  2  0  0  0  0
 10 18  1  0  0  0  0
 12 15  2  0  0  0  0
 12 24  1  0  0  0  0
 13 16  2  0  0  0  0
 13 25  1  0  0  0  0
 14 26  1  0  0  0  0
 14 27  1  0  0  0  0
 14 28  1  0  0  0  0
 15 16  1  0  0  0  0
 16 29  1  0  0  0  0
 17 19  1  0  0  0  0
 17 30  1  0  0  0  0
 18 20  2  0  0  0  0
 18 31  1  0  0  0  0
 19 21  2  0  0  0  0
 19 32  1  0  0  0  0
 20 21  1  0  0  0  0
 20 33  1  0  0  0  0
M  END
> <PUBCHEM_COMPOUND_CID>
1688

> <PUBCHEM_CONFORMER_RMSD>
0.6

> <PUBCHEM_CONFORMER_DIVERSEORDER>
2
1

> <PUBCHEM_MMFF94_PARTIAL_CHARGES>
28
1 -0.18
10 0.09
11 0.57
12 -0.15
13 -0.15
14 0.3
15 0.18
16 -0.15
17 -0.15
18 -0.15
19 -0.15
2 -0.18
20 -0.15
21 0.18
24 0.15
25 0.15
29 0.15
3 -0.57
30 0.15
31 0.15
32 0.15
33 0.15
4 -0.48
5 -0.7
6 0.09
7 0.12
8 0.28
9 0.31

> <PUBCHEM_EFFECTIVE_ROTOR_COUNT>
1.4

> <PUBCHEM_PHARMACOPHORE_FEATURES>
5
1 3 acceptor
1 5 acceptor
6 10 17 18 19 20 21 rings
6 6 7 12 13 15 16 rings
7 4 5 6 7 8 9 11 rings

> <PUBCHEM_HEAVY_ATOM_COUNT>
21

> <PUBCHEM_ATOM_DEF_STEREO_COUNT>
0

> <PUBCHEM_ATOM_UDEF_STEREO_COUNT>
0

> <PUBCHEM_BOND_DEF_STEREO_COUNT>
0

> <PUBCHEM_BOND_UDEF_STEREO_COUNT>
0

> <PUBCHEM_ISOTOPIC_ATOM_COUNT>
0

> <PUBCHEM_COMPONENT_COUNT>
1

> <PUBCHEM_CACTVS_TAUTO_COUNT>
1

> <PUBCHEM_CONFORMER_ID>
0000069800000002

> <PUBCHEM_MMFF94_ENERGY>
83.2372

> <PUBCHEM_FEATURE_SELFOVERLAP>
25.383

> <PUBCHEM_SHAPE_FINGERPRINT>
10693767 8 18129947780363842926
1100329 8 18409727357457822426
12553582 1 17979635637152804955
12716301 132 17692518327845771112
12730499 353 18334864960854307747
13004483 165 17182492902248970090
13009979 54 17559117558212417435
13140716 1 18410849996935341882
13533116 47 18411697652762223647
13583140 156 17974030366188375241
15375462 189 18198347256229030595
16752209 62 17203604840579750573
16945 1 18263088733986358890
1813 80 17981890739743652054
18186145 218 18339647835834175381
20291156 8 17908985404949900555
20559304 39 18200866284349050899
20567600 347 18338221782206202931
20645477 70 18272082791137033511
21452121 199 17901937548453661682
21452121 99 18048879890462380752
21634736 98 18272090469926836742
22112679 90 17700987543306750504
22182313 1 17481448370928775276
2255824 54 18410854334889181634
22907989 373 17327185853783988148
23419403 2 17536357766243511202
235170 7 17749936822566950087
23559900 14 18335692794347056171
23598291 2 18128829538161615825
238 59 18410300224052347755
25 1 18410019861603957348
257057 1 17761486989767639594
2748010 2 16471768070832541912
3060560 45 18335420209604651156
312423 11 18131073702050865689
3323516 105 18340492274002409603
4409770 3 17331391486139772548
474 4 18337669823074273541
484989 97 18263661717021112386
543358 83 18268149756318936417
59682541 52 18049408537160947325
633830 44 18271815669624988981
6442390 28 18190748733196412843
7364860 26 18272923908298743162
7471813 234 18198614432879758926
84936 182 18272369806089280336
9981440 41 16408418518845670936

> <PUBCHEM_SHAPE_MULTIPOLES>
420.08
7.73
3.87
1.26
12.24
3.15
-0.15
-1.53
-3.21
-4.76
1.16
-0.18
-0.3
-0.78

> <PUBCHEM_SHAPE_SELFOVERLAP>
901.779

> <PUBCHEM_SHAPE_VOLUME>
233.6

> <PUBCHEM_COORDINATE_TYPE>
2
5
10

$$$$
19001
  -OEChem-12311613103D

 18 17  0     1  0  0  0  0  0999 V2000
    2.1855    1.5381    0.8235 S   0  0  0  0  0  0  0  0  0  0  0  0
   -3.0369    0.9331    0.2663 S   0  0  0  0  0  0  0  0  0  0  0  0
    1.5804   -1.4960    0.1854 O   0  0  0  0  0  0  0  0  0  0  0  0
   -1.1988   -1.5486    0.3464 O   0  0  0  0  0  0  0  0  0  0  0  0
    0.8007   -0.5284   -0.5150 C   0  0  1  0  0  0  0  0  0  0  0  0
   -0.5432   -0.2893    0.2024 C   0  0  1  0  0  0  0  0  0  0  0  0
    1.6622    0.7272   -0.7212 C   0  0  0  0  0  0  0  0  0  0  0  0
   -1.4499    0.6640   -0.5878 C   0  0  0  0  0  0  0  0  0  0  0  0
    0.5988   -0.9680   -1.5001 H   0  0  0  0  0  0  0  0  0  0  0  0
   -0.3656    0.0805    1.2183 H   0  0  0  0  0  0  0  0  0  0  0  0
    1.1544    1.4626   -1.3510 H   0  0  0  0  0  0  0  0  0  0  0  0
    2.5850    0.4397   -1.2372 H   0  0  0  0  0  0  0  0  0  0  0  0
   -1.6810    0.2441   -1.5721 H   0  0  0  0  0  0  0  0  0  0  0  0
   -0.9843    1.6428   -0.7248 H   0  0  0  0  0  0  0  0  0  0  0  0
    1.0243   -2.2842    0.3083 H   0  0  0  0  0  0  0  0  0  0  0  0
   -2.0491   -1.3852    0.7892 H   0  0  0  0  0  0  0  0  0  0  0  0
    0.9766    1.9961    1.1791 H   0  0  0  0  0  0  0  0  0  0  0  0
   -2.5239    1.4947    1.3708 H   0  0  0  0  0  0  0  0  0  0  0  0
  1  7  1  0  0  0  0
  1 17  1  0  0  0  0
  2  8  1  0  0  0  0
  2 18  1  0  0  0  0
  3  5  1  0  0  0  0
  3 15  1  0  0  0  0
  4  6  1  0  0  0  0
  4 16  1  0  0  0  0
  5  6  1  0  0  0  0
  5  7  1  0  0  0  0
  5  9  1  0  0  0  0
  6  8  1  0  0  0  0
  6 10  1  0  0  0  0
  7 11  1  0  0  0  0
  7 12  1  0  0  0  0
  8 13  1  0  0  0  0
  8 14  1  0  0  0  0
M  END
> <PUBCHEM_COMPOUND_CID>
19001

> <PUBCHEM_CONFORMER_RMSD>
0.6

> <PUBCHEM_CONFORMER_DIVERSEORDER>
3
2
16
44
27
37
41
35
42
34
43
18
14
32
38
26
9
8
6
29
11
28
10
45
24
5
25
36
33
39
17
15
30
40
23
12
13
7
20
1
19
4
22
21
31

> <PUBCHEM_MMFF94_PARTIAL_CHARGES>
12
1 -0.41
15 0.4
16 0.4
17 0.18
18 0.18
2 -0.41
3 -0.68
4 -0.68
5 0.28
6 0.28
7 0.23
8 0.23

> <PUBCHEM_EFFECTIVE_ROTOR_COUNT>
3

> <PUBCHEM_PHARMACOPHORE_FEATURES>
4
1 3 acceptor
1 3 donor
1 4 acceptor
1 4 donor

> <PUBCHEM_HEAVY_ATOM_COUNT>
8

> <PUBCHEM_ATOM_DEF_STEREO_COUNT>
0

> <PUBCHEM_ATOM_UDEF_STEREO_COUNT>
2

> <PUBCHEM_BOND_DEF_STEREO_COUNT>
0

> <PUBCHEM_BOND_UDEF_STEREO_COUNT>
0

> <PUBCHEM_ISOTOPIC_ATOM_COUNT>
0

> <PUBCHEM_COMPONENT_COUNT>
1

> <PUBCHEM_CACTVS_TAUTO_COUNT>
1

> <PUBCHEM_CONFORMER_ID>
00004A3900000003

> <PUBCHEM_MMFF94_ENERGY>
13.6307

> <PUBCHEM_FEATURE_SELFOVERLAP>
20.306

> <PUBCHEM_SHAPE_FINGERPRINT>
14390081 3 18273214226840274745
21040471 1 18334582351462885989
23211744 41 17843124972273655660
23235685 24 18334858337519274452
24536 1 17749390420304679718
5084963 1 17532664438029514293

> <PUBCHEM_SHAPE_MULTIPOLES>
160.6
3.85
1.68
0.89
1.82
0.21
-0.04
-1.88
0.48
-0.49
0.36
-0.2
-0.15
0.27

> <PUBCHEM_SHAPE_SELFOVERLAP>
271.159

> <PUBCHEM_SHAPE_VOLUME>
111

> <PUBCHEM_COORDINATE_TYPE>
2
5
10

$$$$

7302
  -OEChem-12311613113D

 12 12  0     0  0  0  0  0  0999 V2000
    0.0343   -1.1278   -0.0417 O   0  0  0  0  0  0  0  0  0  0  0  0
    2.0184    0.0234   -0.0612 O   0  0  0  0  0  0  0  0  0  0  0  0
   -1.4292    0.6742   -0.2330 C   0  0  0  0  0  0  0  0  0  0  0  0
   -0.0810    1.2058    0.1869 C   0  0  0  0  0  0  0  0  0  0  0  0
   -1.3416   -0.7813    0.1458 C   0  0  0  0  0  0  0  0  0  0  0  0
    0.7991    0.0057    0.0033 C   0  0  0  0  0  0  0  0  0  0  0  0
   -2.2701    1.1923    0.2353 H   0  0  0  0  0  0  0  0  0  0  0  0
   -1.5364    0.7676   -1.3207 H   0  0  0  0  0  0  0  0  0  0  0  0
   -0.0696    1.4990    1.2405 H   0  0  0  0  0  0  0  0  0  0  0  0
    0.2409    2.0332   -0.4494 H   0  0  0  0  0  0  0  0  0  0  0  0
   -1.6049   -0.9558    1.1942 H   0  0  0  0  0  0  0  0  0  0  0  0
   -1.9705   -1.4102   -0.4907 H   0  0  0  0  0  0  0  0  0  0  0  0
  1  5  1  0  0  0  0
  1  6  1  0  0  0  0
  2  6  2  0  0  0  0
  3  4  1  0  0  0  0
  3  5  1  0  0  0  0
  3  7  1  0  0  0  0
  3  8  1  0  0  0  0
  4  6  1  0  0  0  0
  4  9  1  0  0  0  0
  4 10  1  0  0  0  0
  5 11  1  0  0  0  0
  5 12  1  0  0  0  0
M  END
> <PUBCHEM_COMPOUND_CID>
7302

> <PUBCHEM_CONFORMER_RMSD>
0.4

> <PUBCHEM_CONFORMER_DIVERSEORDER>
1

> <PUBCHEM_MMFF94_PARTIAL_CHARGES>
5
1 -0.43
2 -0.57
4 0.06
5 0.28
6 0.66

> <PUBCHEM_EFFECTIVE_ROTOR_COUNT>
0.8

> <PUBCHEM_PHARMACOPHORE_FEATURES>
2
1 2 acceptor
5 1 3 4 5 6 rings

> <PUBCHEM_HEAVY_ATOM_COUNT>
6

> <PUBCHEM_ATOM_DEF_STEREO_COUNT>
0

> <PUBCHEM_ATOM_UDEF_STEREO_COUNT>
0

> <PUBCHEM_BOND_DEF_STEREO_COUNT>
0

> <PUBCHEM_BOND_UDEF_STEREO_COUNT>
0

> <PUBCHEM_ISOTOPIC_ATOM_COUNT>
0

> <PUBCHEM_COMPONENT_COUNT>
1

> <PUBCHEM_CACTVS_TAUTO_COUNT>
2

> <PUBCHEM_CONFORMER_ID>
00001C8600000001

> <PUBCHEM_MMFF94_ENERGY>
1.2927

> <PUBCHEM_FEATURE_SELFOVERLAP>
10.148

> <PUBCHEM_SHAPE_FINGERPRINT>
139733 1 9150909264207915089
16714656 1 18410582794266564388
20096714 4 18265896860739847492
21015797 1 9005326241115244921
21040471 1 18194118521275607137
29004967 10 18271251615537483203
5943 1 16304239491275714201

> <PUBCHEM_SHAPE_MULTIPOLES>
111.74
1.94
1.21
0.6
0.52
0.06
0.01
-0.06
-0.08
-0.25
0.04
-0.05
0.03
0.07

> <PUBCHEM_SHAPE_SELFOVERLAP>
221.034

> <PUBCHEM_SHAPE_VOLUME>
68.7

> <PUBCHEM_COORDINATE_TYPE>
2
5
10

$$$$

2040
  -OEChem-12311613123D

 35 37  0     0  0  0  0  0  0999 V2000
    1.7318   -2.9979    0.5645 F   0  0  0  0  0  0  0  0  0  0  0  0
   -0.1959    2.1095   -0.0377 O   0  0  0  0  0  0  0  0  0  0  0  0
    0.5825   -0.1031   -0.2553 N   0  0  0  0  0  0  0  0  0  0  0  0
   -1.0000   -1.8796   -0.2813 N   0  0  0  0  0  0  0  0  0  0  0  0
   -5.2425    1.7625    0.2047 N   0  0  0  0  0  0  0  0  0  0  0  0
    1.9556    0.3197   -0.2183 C   0  0  0  0  0  0  0  0  0  0  0  0
   -1.7981    0.4229   -0.0970 C   0  0  0  0  0  0  0  0  0  0  0  0
    0.2225   -1.4496   -0.3502 C   0  0  0  0  0  0  0  0  0  0  0  0
   -0.4011    0.9028   -0.1461 C   0  0  0  0  0  0  0  0  0  0  0  0
   -2.0359   -0.9507   -0.1418 C   0  0  0  0  0  0  0  0  0  0  0  0
    2.6365    0.4027    0.9908 C   0  0  0  0  0  0  0  0  0  0  0  0
   -2.8597    1.3284    0.0186 C   0  0  0  0  0  0  0  0  0  0  0  0
    2.5896    0.6424   -1.4128 C   0  0  0  0  0  0  0  0  0  0  0  0
   -3.3552   -1.4127   -0.0701 C   0  0  0  0  0  0  0  0  0  0  0  0
    1.2793   -2.5048   -0.6064 C   0  0  0  0  0  0  0  0  0  0  0  0
   -4.1691    0.8549    0.0884 C   0  0  0  0  0  0  0  0  0  0  0  0
    3.9692    0.8139    1.0058 C   0  0  0  0  0  0  0  0  0  0  0  0
   -4.4172   -0.5148    0.0454 C   0  0  0  0  0  0  0  0  0  0  0  0
    1.9730    0.0606    2.2852 C   0  0  0  0  0  0  0  0  0  0  0  0
    3.9225    1.0535   -1.3979 C   0  0  0  0  0  0  0  0  0  0  0  0
    4.6123    1.1393   -0.1886 C   0  0  0  0  0  0  0  0  0  0  0  0
   -2.6744    2.3992    0.0570 H   0  0  0  0  0  0  0  0  0  0  0  0
    2.0611    0.5785   -2.3602 H   0  0  0  0  0  0  0  0  0  0  0  0
   -3.5640   -2.4793   -0.1077 H   0  0  0  0  0  0  0  0  0  0  0  0
    2.1294   -2.1215   -1.1718 H   0  0  0  0  0  0  0  0  0  0  0  0
    0.8422   -3.3346   -1.1706 H   0  0  0  0  0  0  0  0  0  0  0  0
    4.5219    0.8864    1.9387 H   0  0  0  0  0  0  0  0  0  0  0  0
   -5.4333   -0.8974    0.0988 H   0  0  0  0  0  0  0  0  0  0  0  0
    2.6534    0.1838    3.1352 H   0  0  0  0  0  0  0  0  0  0  0  0
    1.1138    0.7154    2.4626 H   0  0  0  0  0  0  0  0  0  0  0  0
    1.6404   -0.9819    2.2871 H   0  0  0  0  0  0  0  0  0  0  0  0
    4.4232    1.3067   -2.3278 H   0  0  0  0  0  0  0  0  0  0  0  0
    5.6500    1.4595   -0.1771 H   0  0  0  0  0  0  0  0  0  0  0  0
   -5.0636    2.7574    0.2331 H   0  0  0  0  0  0  0  0  0  0  0  0
   -6.1926    1.4192    0.2524 H   0  0  0  0  0  0  0  0  0  0  0  0
  1 15  1  0  0  0  0
  2  9  2  0  0  0  0
  3  6  1  0  0  0  0
  3  8  1  0  0  0  0
  3  9  1  0  0  0  0
  4  8  2  0  0  0  0
  4 10  1  0  0  0  0
  5 16  1  0  0  0  0
  5 34  1  0  0  0  0
  5 35  1  0  0  0  0
  6 11  1  0  0  0  0
  6 13  2  0  0  0  0
  7  9  1  0  0  0  0
  7 10  2  0  0  0  0
  7 12  1  0  0  0  0
  8 15  1  0  0  0  0
 10 14  1  0  0  0  0
 11 17  2  0  0  0  0
 11 19  1  0  0  0  0
 12 16  2  0  0  0  0
 12 22  1  0  0  0  0
 13 20  1  0  0  0  0
 13 23  1  0  0  0  0
 14 18  2  0  0  0  0
 14 24  1  0  0  0  0
 15 25  1  0  0  0  0
 15 26  1  0  0  0  0
 16 18  1  0  0  0  0
 17 21  1  0  0  0  0
 17 27  1  0  0  0  0
 18 28  1  0  0  0  0
 19 29  1  0  0  0  0
 19 30  1  0  0  0  0
 19 31  1  0  0  0  0
 20 21  2  0  0  0  0
 20 32  1  0  0  0  0
 21 33  1  0  0  0  0
M  END
> <PUBCHEM_COMPOUND_CID>
2040

> <PUBCHEM_CONFORMER_RMSD>
0.6

> <PUBCHEM_CONFORMER_DIVERSEORDER>
2
1

> <PUBCHEM_MMFF94_PARTIAL_CHARGES>
30
1 -0.34
10 0.18
11 -0.14
12 -0.15
13 -0.15
14 -0.15
15 0.4
16 0.1
17 -0.15
18 -0.15
19 0.14
2 -0.57
20 -0.15
21 -0.15
22 0.15
23 0.15
24 0.15
27 0.15
28 0.15
3 -0.24
32 0.15
33 0.15
34 0.4
35 0.4
4 -0.63
5 -0.9
6 0.12
7 0.09
8 0.45
9 0.54

> <PUBCHEM_EFFECTIVE_ROTOR_COUNT>
2

> <PUBCHEM_PHARMACOPHORE_FEATURES>
6
1 2 acceptor
1 5 cation
1 5 donor
6 3 4 7 8 9 10 rings
6 6 11 13 17 20 21 rings
6 7 10 12 14 16 18 rings

> <PUBCHEM_HEAVY_ATOM_COUNT>
21

> <PUBCHEM_ATOM_DEF_STEREO_COUNT>
0

> <PUBCHEM_ATOM_UDEF_STEREO_COUNT>
0

> <PUBCHEM_BOND_DEF_STEREO_COUNT>
0

> <PUBCHEM_BOND_UDEF_STEREO_COUNT>
0

> <PUBCHEM_ISOTOPIC_ATOM_COUNT>
0

> <PUBCHEM_COMPONENT_COUNT>
1

> <PUBCHEM_CACTVS_TAUTO_COUNT>
1

> <PUBCHEM_CONFORMER_ID>
000007F800000002

> <PUBCHEM_MMFF94_ENERGY>
93.4092

> <PUBCHEM_FEATURE_SELFOVERLAP>
30.475

> <PUBCHEM_SHAPE_FINGERPRINT>
10366900 7 18130780175221992281
10411042 1 17403176392135417886
10498660 4 18342177769298270401
11132069 177 18410575097843581453
11578080 2 16880465970472729094
11963148 33 18191301783409349595
12236239 1 17895192246897235364
12403259 415 17845936341716936257
12403814 3 17603862317349291917
12592029 89 18335427875910063546
12633257 1 16515956051736215672
12788726 201 17320714085741898322
13140716 1 17907017631835046979
13544592 145 17917441951269518588
14178342 30 18340755040164992987
14341114 328 17603302686846330128
14790565 3 18337680831023167116
15196674 1 18411984641801689743
15536298 74 18342461391700503079
1601671 61 18409731755171660325
16752209 62 18267297818995274543
16945 1 18339919441424237783
18186145 218 17346321526546726419
19784866 170 18408326579379531489
19784866 9 18409729538978747418
20028762 73 17769661133093254087
20600515 1 18270958072061990448
20691752 17 17822015259353352991
20715895 44 17608349269726180109
21033648 29 17418369220959285745
21421861 104 17896877651571067411
2334 1 17475230683833319463
23366157 5 18042409032352159246
23402539 116 18272366516560738164
23493267 7 18114472252580551706
23559900 14 18201166511791416164
2748010 2 18339646620896299559
34934 24 18341610400292506365
350125 39 18194686956012970404
474 4 18041002851205211639
495365 180 17631436887636185575
4990 188 17489594471483004884
5104073 3 18338526214679669611
5265222 85 18054797441317197804
59755656 215 18341338786624290590
633830 44 18059569230459083508
7364860 26 18200031716522337846
7495541 125 11887665226065280687
77492 1 17749943488044670588
8272917 22 17022894632117434256

> <PUBCHEM_SHAPE_MULTIPOLES>
404.08
8.91
2.26
1.21
4.03
1.46
0.42
-4.19
-0.03
0.4
-0.12
-1.56
-0.12
-0.33

> <PUBCHEM_SHAPE_SELFOVERLAP>
890.625

> <PUBCHEM_SHAPE_VOLUME>
217.7

> <PUBCHEM_COORDINATE_TYPE>
2
5
10

$$$$

23914
  -OEChem-12311613123D

 36 38  0     0  0  0  0  0  0999 V2000
   -0.1700    1.7240   -1.0702 O   0  0  0  0  0  0  0  0  0  0  0  0
    0.2962   -0.4156   -0.2020 N   0  0  0  0  0  0  0  0  0  0  0  0
   -1.5108   -1.7681    0.5504 N   0  0  0  0  0  0  0  0  0  0  0  0
    1.7141   -0.2128   -0.3195 C   0  0  0  0  0  0  0  0  0  0  0  0
    2.4390    0.3349    0.7328 C   0  0  0  0  0  0  0  0  0  0  0  0
   -0.2446   -1.5883    0.3306 C   0  0  0  0  0  0  0  0  0  0  0  0
   -0.5390    0.6463   -0.6094 C   0  0  0  0  0  0  0  0  0  0  0  0
   -1.9857    0.4372   -0.3900 C   0  0  0  0  0  0  0  0  0  0  0  0
    1.7782    0.7297    2.0137 C   0  0  0  0  0  0  0  0  0  0  0  0
   -2.4073   -0.7524    0.2038 C   0  0  0  0  0  0  0  0  0  0  0  0
    2.3467   -0.5741   -1.5039 C   0  0  0  0  0  0  0  0  0  0  0  0
    3.8146    0.5238    0.5991 C   0  0  0  0  0  0  0  0  0  0  0  0
    0.6515   -2.7718    0.6335 C   0  0  0  0  0  0  0  0  0  0  0  0
   -2.9115    1.4245   -0.7478 C   0  0  0  0  0  0  0  0  0  0  0  0
    3.7223   -0.3853   -1.6374 C   0  0  0  0  0  0  0  0  0  0  0  0
    4.4561    0.1637   -0.5861 C   0  0  0  0  0  0  0  0  0  0  0  0
    1.2949    2.1764    1.9923 C   0  0  0  0  0  0  0  0  0  0  0  0
   -3.7738   -0.9460    0.4373 C   0  0  0  0  0  0  0  0  0  0  0  0
   -4.2697    1.2189   -0.5103 C   0  0  0  0  0  0  0  0  0  0  0  0
   -4.7012    0.0349    0.0830 C   0  0  0  0  0  0  0  0  0  0  0  0
    0.9456    0.0638    2.2641 H   0  0  0  0  0  0  0  0  0  0  0  0
    2.4896    0.6083    2.8412 H   0  0  0  0  0  0  0  0  0  0  0  0
    1.7839   -1.0026   -2.3288 H   0  0  0  0  0  0  0  0  0  0  0  0
    4.3994    0.9525    1.4087 H   0  0  0  0  0  0  0  0  0  0  0  0
    1.4058   -2.4895    1.3728 H   0  0  0  0  0  0  0  0  0  0  0  0
    1.1548   -3.0964   -0.2814 H   0  0  0  0  0  0  0  0  0  0  0  0
    0.0688   -3.6083    1.0303 H   0  0  0  0  0  0  0  0  0  0  0  0
   -2.5955    2.3567   -1.2076 H   0  0  0  0  0  0  0  0  0  0  0  0
    4.2218   -0.6657   -2.5602 H   0  0  0  0  0  0  0  0  0  0  0  0
    5.5271    0.3112   -0.6904 H   0  0  0  0  0  0  0  0  0  0  0  0
    2.1132    2.8659    1.7580 H   0  0  0  0  0  0  0  0  0  0  0  0
    0.8990    2.4490    2.9763 H   0  0  0  0  0  0  0  0  0  0  0  0
    0.4993    2.3403    1.2650 H   0  0  0  0  0  0  0  0  0  0  0  0
   -4.1255   -1.8676    0.8952 H   0  0  0  0  0  0  0  0  0  0  0  0
   -4.9910    1.9825   -0.7863 H   0  0  0  0  0  0  0  0  0  0  0  0
   -5.7592   -0.1261    0.2684 H   0  0  0  0  0  0  0  0  0  0  0  0
  1  7  2  0  0  0  0
  2  4  1  0  0  0  0
  2  6  1  0  0  0  0
  2  7  1  0  0  0  0
  3  6  2  0  0  0  0
  3 10  1  0  0  0  0
  4  5  1  0  0  0  0
  4 11  2  0  0  0  0
  5  9  1  0  0  0  0
  5 12  2  0  0  0  0
  6 13  1  0  0  0  0
  7  8  1  0  0  0  0
  8 10  1  0  0  0  0
  8 14  2  0  0  0  0
  9 17  1  0  0  0  0
  9 21  1  0  0  0  0
  9 22  1  0  0  0  0
 10 18  2  0  0  0  0
 11 15  1  0  0  0  0
 11 23  1  0  0  0  0
 12 16  1  0  0  0  0
 12 24  1  0  0  0  0
 13 25  1  0  0  0  0
 13 26  1  0  0  0  0
 13 27  1  0  0  0  0
 14 19  1  0  0  0  0
 14 28  1  0  0  0  0
 15 16  2  0  0  0  0
 15 29  1  0  0  0  0
 16 30  1  0  0  0  0
 17 31  1  0  0  0  0
 17 32  1  0  0  0  0
 17 33  1  0  0  0  0
 18 20  1  0  0  0  0
 18 34  1  0  0  0  0
 19 20  2  0  0  0  0
 19 35  1  0  0  0  0
 20 36  1  0  0  0  0
M  END
> <PUBCHEM_COMPOUND_CID>
23914

> <PUBCHEM_CONFORMER_RMSD>
0.6

> <PUBCHEM_CONFORMER_DIVERSEORDER>
1
2

> <PUBCHEM_MMFF94_PARTIAL_CHARGES>
27
1 -0.57
10 0.18
11 -0.15
12 -0.15
13 0.06
14 -0.15
15 -0.15
16 -0.15
18 -0.15
19 -0.15
2 -0.24
20 -0.15
23 0.15
24 0.15
28 0.15
29 0.15
3 -0.63
30 0.15
34 0.15
35 0.15
36 0.15
4 0.12
5 -0.14
6 0.45
7 0.54
8 0.09
9 0.14

> <PUBCHEM_EFFECTIVE_ROTOR_COUNT>
2

> <PUBCHEM_PHARMACOPHORE_FEATURES>
5
1 1 acceptor
1 17 hydrophobe
6 2 3 6 7 8 10 rings
6 4 5 11 12 15 16 rings
6 8 10 14 18 19 20 rings

> <PUBCHEM_HEAVY_ATOM_COUNT>
20

> <PUBCHEM_ATOM_DEF_STEREO_COUNT>
0

> <PUBCHEM_ATOM_UDEF_STEREO_COUNT>
0

> <PUBCHEM_BOND_DEF_STEREO_COUNT>
0

> <PUBCHEM_BOND_UDEF_STEREO_COUNT>
0

> <PUBCHEM_ISOTOPIC_ATOM_COUNT>
0

> <PUBCHEM_COMPONENT_COUNT>
1

> <PUBCHEM_CACTVS_TAUTO_COUNT>
1

> <PUBCHEM_CONFORMER_ID>
00005D6A00000001

> <PUBCHEM_MMFF94_ENERGY>
81.3621

> <PUBCHEM_FEATURE_SELFOVERLAP>
25.4

> <PUBCHEM_SHAPE_FINGERPRINT>
10366900 7 18411411805092015921
10498660 4 18260545589456393821
11132069 177 18114183021182762455
11471102 20 17275103942497347600
12236239 1 16877663478710595974
12403814 3 16515401863774463119
12670546 56 15285348510250986125
13134695 92 16630808815881067760
13140716 1 17972048191330538443
13538477 17 17168427180791676786
13760787 19 16081091502227471795
14341114 328 16225770717834714697
15536298 74 18263083219317383799
15848702 151 16988850462150231693
1601671 61 18041279877002167701
16752209 62 17968365849368825291
16945 1 18260265278716338031
17138139 8 15649871988378562739
17349148 13 17896020174942425007
17357779 13 17632296739883571584
17804303 29 18337111258577555305
18186145 218 18060416919801418883
200 152 15841556257954193294
20028762 73 18122918778996227779
20510252 161 18409733941246619401
20645477 70 17346326964223438494
21033648 29 18202273706899588809
21503847 285 17632580427058343417
221357 26 17775003449617393113
23175994 123 17846230955325672096
23402539 116 18408320003916568110
23493267 7 17386017168990188699
23526113 38 18201726119790691310
23558518 356 17768506632602599446
23559900 14 18410302389475436070
2748010 2 17901112137707537535
298252 57 17676785235522640626
350125 39 17827356579292456414
3524813 1 18341607118484175273
4409770 3 14863674492234591562
474 4 15337686444997031418
4990 188 18130791139661582198
5104073 3 18042973060990647497
53812653 166 18410569574525973891
633830 44 18201429290300895573
7364860 26 18194394490078364331
77492 1 16805320024434231694
81228 2 17831845120812498955
8272917 22 15140951816838236121

> <PUBCHEM_SHAPE_MULTIPOLES>
395.76
8.03
1.99
1.51
2.93
0.43
0.24
-1.13
-1.62
0.18
0.78
-1.23
-0.46
1.3

> <PUBCHEM_SHAPE_SELFOVERLAP>
866.848

> <PUBCHEM_SHAPE_VOLUME>
214.1

> <PUBCHEM_COORDINATE_TYPE>
2
5
10

$$$$

9567
  -OEChem-12311613133D

 30 32  0     0  0  0  0  0  0999 V2000
    1.7118    0.0061   -2.5364 Cl  0  0  0  0  0  0  0  0  0  0  0  0
   -0.1228   -2.0658    0.2071 O   0  0  0  0  0  0  0  0  0  0  0  0
    0.3772    0.2362    0.2002 N   0  0  0  0  0  0  0  0  0  0  0  0
   -1.4116    1.7993    0.0674 N   0  0  0  0  0  0  0  0  0  0  0  0
   -1.9204   -0.5907    0.1165 C   0  0  0  0  0  0  0  0  0  0  0  0
   -0.1459    1.5311    0.1666 C   0  0  0  0  0  0  0  0  0  0  0  0
   -0.4750   -0.8885    0.1990 C   0  0  0  0  0  0  0  0  0  0  0  0
    1.7919   -0.0168    0.1918 C   0  0  0  0  0  0  0  0  0  0  0  0
   -2.3252    0.7412    0.0293 C   0  0  0  0  0  0  0  0  0  0  0  0
   -2.8623   -1.6263    0.1002 C   0  0  0  0  0  0  0  0  0  0  0  0
   -3.6911    1.0288   -0.0745 C   0  0  0  0  0  0  0  0  0  0  0  0
    0.7723    2.7278    0.3087 C   0  0  0  0  0  0  0  0  0  0  0  0
    2.4935   -0.1386   -1.0026 C   0  0  0  0  0  0  0  0  0  0  0  0
    2.4469   -0.1386    1.4129 C   0  0  0  0  0  0  0  0  0  0  0  0
   -4.2197   -1.3262   -0.0030 C   0  0  0  0  0  0  0  0  0  0  0  0
   -4.6345    0.0005   -0.0915 C   0  0  0  0  0  0  0  0  0  0  0  0
    3.8661   -0.3855   -0.9761 C   0  0  0  0  0  0  0  0  0  0  0  0
    3.8194   -0.3852    1.4394 C   0  0  0  0  0  0  0  0  0  0  0  0
    4.5291   -0.5088    0.2450 C   0  0  0  0  0  0  0  0  0  0  0  0
   -2.5596   -2.6678    0.1640 H   0  0  0  0  0  0  0  0  0  0  0  0
    1.5038    2.7357   -0.5037 H   0  0  0  0  0  0  0  0  0  0  0  0
    1.3024    2.6742    1.2636 H   0  0  0  0  0  0  0  0  0  0  0  0
    0.2019    3.6607    0.2748 H   0  0  0  0  0  0  0  0  0  0  0  0
   -4.0297    2.0603   -0.1394 H   0  0  0  0  0  0  0  0  0  0  0  0
    1.9038   -0.0442    2.3495 H   0  0  0  0  0  0  0  0  0  0  0  0
   -4.9535   -2.1267   -0.0160 H   0  0  0  0  0  0  0  0  0  0  0  0
   -5.6919    0.2353   -0.1718 H   0  0  0  0  0  0  0  0  0  0  0  0
    4.4339   -0.4845   -1.8978 H   0  0  0  0  0  0  0  0  0  0  0  0
    4.3357   -0.4811    2.3900 H   0  0  0  0  0  0  0  0  0  0  0  0
    5.5978   -0.7009    0.2659 H   0  0  0  0  0  0  0  0  0  0  0  0
  1 13  1  0  0  0  0
  2  7  2  0  0  0  0
  3  6  1  0  0  0  0
  3  7  1  0  0  0  0
  3  8  1  0  0  0  0
  4  6  2  0  0  0  0
  4  9  1  0  0  0  0
  5  7  1  0  0  0  0
  5  9  1  0  0  0  0
  5 10  2  0  0  0  0
  6 12  1  0  0  0  0
  8 13  1  0  0  0  0
  8 14  2  0  0  0  0
  9 11  2  0  0  0  0
 10 15  1  0  0  0  0
 10 20  1  0  0  0  0
 11 16  1  0  0  0  0
 11 24  1  0  0  0  0
 12 21  1  0  0  0  0
 12 22  1  0  0  0  0
 12 23  1  0  0  0  0
 13 17  2  0  0  0  0
 14 18  1  0  0  0  0
 14 25  1  0  0  0  0
 15 16  2  0  0  0  0
 15 26  1  0  0  0  0
 16 27  1  0  0  0  0
 17 19  1  0  0  0  0
 17 28  1  0  0  0  0
 18 19  2  0  0  0  0
 18 29  1  0  0  0  0
 19 30  1  0  0  0  0
M  END
> <PUBCHEM_COMPOUND_CID>
9567

> <PUBCHEM_CONFORMER_RMSD>
0.6

> <PUBCHEM_CONFORMER_DIVERSEORDER>
1
2

> <PUBCHEM_MMFF94_PARTIAL_CHARGES>
27
1 -0.18
10 -0.15
11 -0.15
12 0.06
13 0.18
14 -0.15
15 -0.15
16 -0.15
17 -0.15
18 -0.15
19 -0.15
2 -0.57
20 0.15
24 0.15
25 0.15
26 0.15
27 0.15
28 0.15
29 0.15
3 -0.24
30 0.15
4 -0.63
5 0.09
6 0.45
7 0.54
8 0.12
9 0.18

> <PUBCHEM_EFFECTIVE_ROTOR_COUNT>
1

> <PUBCHEM_PHARMACOPHORE_FEATURES>
4
1 2 acceptor
6 3 4 5 6 7 9 rings
6 5 9 10 11 15 16 rings
6 8 13 14 17 18 19 rings

> <PUBCHEM_HEAVY_ATOM_COUNT>
19

> <PUBCHEM_ATOM_DEF_STEREO_COUNT>
0

> <PUBCHEM_ATOM_UDEF_STEREO_COUNT>
0

> <PUBCHEM_BOND_DEF_STEREO_COUNT>
0

> <PUBCHEM_BOND_UDEF_STEREO_COUNT>
0

> <PUBCHEM_ISOTOPIC_ATOM_COUNT>
0

> <PUBCHEM_COMPONENT_COUNT>
1

> <PUBCHEM_CACTVS_TAUTO_COUNT>
1

> <PUBCHEM_CONFORMER_ID>
0000255F00000001

> <PUBCHEM_MMFF94_ENERGY>
78.7338

> <PUBCHEM_FEATURE_SELFOVERLAP>
20.326

> <PUBCHEM_SHAPE_FINGERPRINT>
10062212 137 18187081758912118923
11132069 177 18412261714331186547
11543360 7 15864354700618483859
12236239 1 17748827393527078722
12403814 3 17458062625993837581
12553582 1 18408888425737348009
13134695 92 15719393928002955662
13140716 1 18338801238335991401
13538477 17 17967537908301564530
13862211 1 18410567405821216691
14115302 16 17894354409792723203
14252887 29 17632584837620276422
14289901 80 15554446275740598811
14386348 63 17989491805159323927
15196674 1 18410571833795030521
15375358 24 17917990555684030909
15536298 74 18269833275713517977
15848700 24 18272083915764324029
16752209 62 18334293145550369227
16945 1 18411422782928171649
17804303 29 18410009961989092377
19141452 34 17704071832911685911
19862831 5 17967540072811970894
200 152 16732980907995539728
20028762 73 18057887047027107207
20233049 118 18261112980257968100
20279233 1 17775005682578088495
20344682 1 17704073980331802924
204376 136 15841259450387243646
20600515 1 18341611533705378384
20645476 183 17458918131407102867
20905425 154 18054511305183229998
21033648 29 17060043831537953963
21267235 1 18410016559206805451
22854114 59 16343699937146812202
232386 152 18335983142098212445
2334 1 18122342647544503537
23366157 5 17898286357895131380
23402539 116 18343293760736355062
23532345 42 18343860035094612192
23557571 272 18130515119599415844
23559900 14 18342743966847984246
2748010 2 18193553591885600865
296302 2 15626221338113137267
3286 77 18261385719624639631
335352 9 18410853249011503293
4340502 62 15051732023402064095
43471831 8 18262794051859268866
474 4 13685140229636807098
5104073 3 18267870652501485355
5902787 121 18410290358438505281
69090 78 17346872368903139351
7364860 26 18127692853465779824
7495541 125 17749682899573015969
77492 1 17676492713879319824
81228 2 18057063318794671104
8272917 22 14620526592117537661
9709674 26 18122341547916694907

> <PUBCHEM_SHAPE_MULTIPOLES>
377.05
8.32
1.86
1.34
1.76
0.86
0.72
-2.25
-0.41
0.94
-0.22
-1.7
-0.09
0.02

> <PUBCHEM_SHAPE_SELFOVERLAP>
823.943

> <PUBCHEM_SHAPE_VOLUME>
204.9

> <PUBCHEM_COORDINATE_TYPE>
2
5
10

$$$$

63382
  -OEChem-12311613143D

 36 38  0     0  0  0  0  0  0999 V2000
   -0.3657   -2.0398    0.1798 O   0  0  0  0  0  0  0  0  0  0  0  0
    0.0673    0.2757    0.1833 N   0  0  0  0  0  0  0  0  0  0  0  0
   -1.7670    1.7870    0.0730 N   0  0  0  0  0  0  0  0  0  0  0  0
    1.4886    0.0640    0.1631 C   0  0  0  0  0  0  0  0  0  0  0  0
    2.1719   -0.0273   -1.0439 C   0  0  0  0  0  0  0  0  0  0  0  0
   -0.4933    1.5550    0.1614 C   0  0  0  0  0  0  0  0  0  0  0  0
   -0.7519   -0.8732    0.1815 C   0  0  0  0  0  0  0  0  0  0  0  0
   -2.2059   -0.6170    0.1112 C   0  0  0  0  0  0  0  0  0  0  0  0
   -2.6498    0.7031    0.0350 C   0  0  0  0  0  0  0  0  0  0  0  0
    2.1665   -0.0475    1.3719 C   0  0  0  0  0  0  0  0  0  0  0  0
    3.5516   -0.2329   -1.0426 C   0  0  0  0  0  0  0  0  0  0  0  0
    4.2387   -0.3458    0.1661 C   0  0  0  0  0  0  0  0  0  0  0  0
    3.5462   -0.2530    1.3733 C   0  0  0  0  0  0  0  0  0  0  0  0
    1.4616    0.0899   -2.3534 C   0  0  0  0  0  0  0  0  0  0  0  0
    0.3908    2.7771    0.3041 C   0  0  0  0  0  0  0  0  0  0  0  0
   -3.1175   -1.6794    0.0954 C   0  0  0  0  0  0  0  0  0  0  0  0
   -4.0242    0.9516   -0.0572 C   0  0  0  0  0  0  0  0  0  0  0  0
    5.7137   -0.5655    0.1679 C   0  0  0  0  0  0  0  0  0  0  0  0
   -4.4838   -1.4182    0.0039 C   0  0  0  0  0  0  0  0  0  0  0  0
   -4.9376   -0.1036   -0.0736 C   0  0  0  0  0  0  0  0  0  0  0  0
    1.6359    0.0231    2.3176 H   0  0  0  0  0  0  0  0  0  0  0  0
    4.0963   -0.3078   -1.9809 H   0  0  0  0  0  0  0  0  0  0  0  0
    4.0695   -0.3409    2.3217 H   0  0  0  0  0  0  0  0  0  0  0  0
    2.1504   -0.0074   -3.1998 H   0  0  0  0  0  0  0  0  0  0  0  0
    0.7107   -0.7001   -2.4565 H   0  0  0  0  0  0  0  0  0  0  0  0
    0.9751    1.0662   -2.4444 H   0  0  0  0  0  0  0  0  0  0  0  0
    1.1205    2.8091   -0.5091 H   0  0  0  0  0  0  0  0  0  0  0  0
    0.9240    2.7356    1.2579 H   0  0  0  0  0  0  0  0  0  0  0  0
   -0.2061    3.6933    0.2745 H   0  0  0  0  0  0  0  0  0  0  0  0
   -2.7843   -2.7120    0.1507 H   0  0  0  0  0  0  0  0  0  0  0  0
   -4.3930    1.9731   -0.1133 H   0  0  0  0  0  0  0  0  0  0  0  0
    5.9341   -1.6358    0.1062 H   0  0  0  0  0  0  0  0  0  0  0  0
    6.1880   -0.0587   -0.6794 H   0  0  0  0  0  0  0  0  0  0  0  0
    6.1737   -0.1657    1.0781 H   0  0  0  0  0  0  0  0  0  0  0  0
   -5.1942   -2.2396   -0.0088 H   0  0  0  0  0  0  0  0  0  0  0  0
   -6.0018    0.1008   -0.1449 H   0  0  0  0  0  0  0  0  0  0  0  0
  1  7  2  0  0  0  0
  2  4  1  0  0  0  0
  2  6  1  0  0  0  0
  2  7  1  0  0  0  0
  3  6  2  0  0  0  0
  3  9  1  0  0  0  0
  4  5  2  0  0  0  0
  4 10  1  0  0  0  0
  5 11  1  0  0  0  0
  5 14  1  0  0  0  0
  6 15  1  0  0  0  0
  7  8  1  0  0  0  0
  8  9  1  0  0  0  0
  8 16  2  0  0  0  0
  9 17  2  0  0  0  0
 10 13  2  0  0  0  0
 10 21  1  0  0  0  0
 11 12  2  0  0  0  0
 11 22  1  0  0  0  0
 12 13  1  0  0  0  0
 12 18  1  0  0  0  0
 13 23  1  0  0  0  0
 14 24  1  0  0  0  0
 14 25  1  0  0  0  0
 14 26  1  0  0  0  0
 15 27  1  0  0  0  0
 15 28  1  0  0  0  0
 15 29  1  0  0  0  0
 16 19  1  0  0  0  0
 16 30  1  0  0  0  0
 17 20  1  0  0  0  0
 17 31  1  0  0  0  0
 18 32  1  0  0  0  0
 18 33  1  0  0  0  0
 18 34  1  0  0  0  0
 19 20  2  0  0  0  0
 19 35  1  0  0  0  0
 20 36  1  0  0  0  0
M  END
> <PUBCHEM_COMPOUND_CID>
63382

> <PUBCHEM_CONFORMER_RMSD>
0.6

> <PUBCHEM_CONFORMER_DIVERSEORDER>
1
2

> <PUBCHEM_MMFF94_PARTIAL_CHARGES>
27
1 -0.57
10 -0.15
11 -0.15
12 -0.14
13 -0.15
14 0.14
15 0.06
16 -0.15
17 -0.15
18 0.14
19 -0.15
2 -0.24
20 -0.15
21 0.15
22 0.15
23 0.15
3 -0.63
30 0.15
31 0.15
35 0.15
36 0.15
4 0.12
5 -0.14
6 0.45
7 0.54
8 0.09
9 0.18

> <PUBCHEM_EFFECTIVE_ROTOR_COUNT>
1

> <PUBCHEM_PHARMACOPHORE_FEATURES>
4
1 1 acceptor
6 2 3 6 7 8 9 rings
6 4 5 10 11 12 13 rings
6 8 9 16 17 19 20 rings

> <PUBCHEM_HEAVY_ATOM_COUNT>
20

> <PUBCHEM_ATOM_DEF_STEREO_COUNT>
0

> <PUBCHEM_ATOM_UDEF_STEREO_COUNT>
0

> <PUBCHEM_BOND_DEF_STEREO_COUNT>
0

> <PUBCHEM_BOND_UDEF_STEREO_COUNT>
0

> <PUBCHEM_ISOTOPIC_ATOM_COUNT>
0

> <PUBCHEM_COMPONENT_COUNT>
1

> <PUBCHEM_CACTVS_TAUTO_COUNT>
1

> <PUBCHEM_CONFORMER_ID>
0000F79600000001

> <PUBCHEM_MMFF94_ENERGY>
83.2539

> <PUBCHEM_FEATURE_SELFOVERLAP>
20.326

> <PUBCHEM_SHAPE_FINGERPRINT>
10062212 137 18187364346380317731
11132069 177 18412546492296003289
12119455 92 16917061162003220502
12236239 1 17749108872666835874
13140716 1 18339366387397174721
13288520 33 18410573976598569762
13862211 1 18411133662873062603
14115302 16 17822296828639697171
14289901 80 15626223494445280203
14386348 63 17917714590939442350
15196674 1 18338796818445527721
15375358 24 17846499218803437533
15536298 74 18269833280187839841
15788980 27 17749390360322772009
15848700 24 18272083924549450421
16752209 62 18334009484583043435
16945 1 18411422791655256281
17349148 13 18186522094197313247
17804303 29 18410572920579940561
18186145 218 13334736847157474213
19141452 34 17632295718145416439
19862831 5 17822015315113691430
200 152 16877661249216510644
20028762 73 18057887051327349279
20233049 118 18333449854417652796
20279233 1 17775571935371890471
20344682 1 17704354351375369900
20600515 1 18342748420080645636
21033648 29 17131539579392132347
21267235 1 18409452514084189971
22079108 93 14404889328381110502
22854114 59 16271927112256887166
2297311 6 18342746191540738532
23366157 5 17898850416008156885
23402539 116 18343014488961718822
23557571 272 18202006477986487532
23559900 14 18270967843433757910
26918003 58 16487256581826908995
2748010 2 18193553600617934257
296302 2 15123791790440105775
335352 9 18410853262023012229
34797466 226 18200327614663633196
4340502 62 14979958103327185599
474 4 16951701387864500540
5104073 3 18268999850885208481
59755656 215 18338235955635716054
67856867 119 18115875264389535004
69090 78 17274816973999217295
7364860 26 18055916738578217081
7495541 125 18131067156399445920
77492 1 17676492718063569280
81228 2 18056502576496637921
8272917 22 14476976553187215709
8863177 126 17752781400935032387
9709674 26 18122060077256037611

> <PUBCHEM_SHAPE_MULTIPOLES>
395.76
9.72
1.83
1.22
1.28
0.83
-0.52
-2.99
0.53
-1.3
0.21
1.31
-0.02
-0.01

> <PUBCHEM_SHAPE_SELFOVERLAP>
869.427

> <PUBCHEM_SHAPE_VOLUME>
214.6

> <PUBCHEM_COORDINATE_TYPE>
2
5
10

$$$$
63339
  -OEChem-12311613143D

 36 38  0     0  0  0  0  0  0999 V2000
    0.9152   -0.5927   -2.0589 O   0  0  0  0  0  0  0  0  0  0  0  0
   -0.8825   -1.7177    0.9999 O   0  0  0  0  0  0  0  0  0  0  0  0
    5.6765    0.1768    1.3825 O   0  5  0  0  0  0  0  0  0  0  0  0
    5.6711   -0.6249   -0.6611 O   0  0  0  0  0  0  0  0  0  0  0  0
   -0.5313    0.4444    0.1334 N   0  0  0  0  0  0  0  0  0  0  0  0
   -2.4178    1.7454   -0.5064 N   0  0  0  0  0  0  0  0  0  0  0  0
    5.0697   -0.1592    0.3369 N   0  3  0  0  0  0  0  0  0  0  0  0
    0.8966    0.2864    0.1734 C   0  0  0  0  0  0  0  0  0  0  0  0
   -1.1367    1.6044   -0.3560 C   0  0  0  0  0  0  0  0  0  0  0  0
   -2.7718   -0.4834    0.4320 C   0  0  0  0  0  0  0  0  0  0  0  0
   -1.3096   -0.6479    0.5719 C   0  0  0  0  0  0  0  0  0  0  0  0
   -3.2619    0.6979   -0.1247 C   0  0  0  0  0  0  0  0  0  0  0  0
    1.5768   -0.2277   -0.9243 C   0  0  0  0  0  0  0  0  0  0  0  0
    1.5832    0.6548    1.3247 C   0  0  0  0  0  0  0  0  0  0  0  0
   -3.6454   -1.5037    0.8266 C   0  0  0  0  0  0  0  0  0  0  0  0
   -0.2959    2.8192   -0.6920 C   0  0  0  0  0  0  0  0  0  0  0  0
    2.9627   -0.3756   -0.8702 C   0  0  0  0  0  0  0  0  0  0  0  0
   -4.6444    0.8496   -0.2833 C   0  0  0  0  0  0  0  0  0  0  0  0
    3.6589   -0.0082    0.2813 C   0  0  0  0  0  0  0  0  0  0  0  0
    2.9691    0.5070    1.3788 C   0  0  0  0  0  0  0  0  0  0  0  0
   -5.0202   -1.3396    0.6637 C   0  0  0  0  0  0  0  0  0  0  0  0
   -5.5200   -0.1643    0.1081 C   0  0  0  0  0  0  0  0  0  0  0  0
    0.4576   -1.9409   -2.1361 C   0  0  0  0  0  0  0  0  0  0  0  0
    1.0543    1.0572    2.1845 H   0  0  0  0  0  0  0  0  0  0  0  0
   -3.2759   -2.4297    1.2582 H   0  0  0  0  0  0  0  0  0  0  0  0
    3.4740   -0.7793   -1.7411 H   0  0  0  0  0  0  0  0  0  0  0  0
    0.4243    2.5677   -1.4752 H   0  0  0  0  0  0  0  0  0  0  0  0
    0.2471    3.1493    0.1978 H   0  0  0  0  0  0  0  0  0  0  0  0
   -0.9251    3.6411   -1.0457 H   0  0  0  0  0  0  0  0  0  0  0  0
   -5.0490    1.7639   -0.7111 H   0  0  0  0  0  0  0  0  0  0  0  0
    3.4782    0.8036    2.2923 H   0  0  0  0  0  0  0  0  0  0  0  0
   -5.7012   -2.1289    0.9684 H   0  0  0  0  0  0  0  0  0  0  0  0
   -6.5909   -0.0356   -0.0191 H   0  0  0  0  0  0  0  0  0  0  0  0
    0.9542   -2.5938   -1.4098 H   0  0  0  0  0  0  0  0  0  0  0  0
    0.6641   -2.3161   -3.1424 H   0  0  0  0  0  0  0  0  0  0  0  0
   -0.6232   -1.9641   -1.9728 H   0  0  0  0  0  0  0  0  0  0  0  0
  1 13  1  0  0  0  0
  1 23  1  0  0  0  0
  2 11  2  0  0  0  0
  3  7  1  0  0  0  0
  4  7  2  0  0  0  0
  5  8  1  0  0  0  0
  5  9  1  0  0  0  0
  5 11  1  0  0  0  0
  6  9  2  0  0  0  0
  6 12  1  0  0  0  0
  7 19  1  0  0  0  0
  8 13  2  0  0  0  0
  8 14  1  0  0  0  0
  9 16  1  0  0  0  0
 10 11  1  0  0  0  0
 10 12  1  0  0  0  0
 10 15  2  0  0  0  0
 12 18  2  0  0  0  0
 13 17  1  0  0  0  0
 14 20  2  0  0  0  0
 14 24  1  0  0  0  0
 15 21  1  0  0  0  0
 15 25  1  0  0  0  0
 16 27  1  0  0  0  0
 16 28  1  0  0  0  0
 16 29  1  0  0  0  0
 17 19  2  0  0  0  0
 17 26  1  0  0  0  0
 18 22  1  0  0  0  0
 18 30  1  0  0  0  0
 19 20  1  0  0  0  0
 20 31  1  0  0  0  0
 21 22  2  0  0  0  0
 21 32  1  0  0  0  0
 22 33  1  0  0  0  0
 23 34  1  0  0  0  0
 23 35  1  0  0  0  0
 23 36  1  0  0  0  0
M  CHG  2   3  -1   7   1
M  END
> <PUBCHEM_COMPOUND_CID>
63339

> <PUBCHEM_CONFORMER_RMSD>
0.6

> <PUBCHEM_CONFORMER_DIVERSEORDER>
2
1

> <PUBCHEM_MMFF94_PARTIAL_CHARGES>
30
1 -0.36
10 0.09
11 0.54
12 0.18
13 0.08
14 -0.15
15 -0.15
16 0.06
17 -0.15
18 -0.15
19 0.13
2 -0.57
20 -0.15
21 -0.15
22 -0.15
23 0.28
24 0.15
25 0.15
26 0.15
3 -0.52
30 0.15
31 0.15
32 0.15
33 0.15
4 -0.52
5 -0.24
6 -0.63
7 0.91
8 0.12
9 0.45

> <PUBCHEM_EFFECTIVE_ROTOR_COUNT>
3

> <PUBCHEM_PHARMACOPHORE_FEATURES>
8
1 1 acceptor
1 2 acceptor
1 3 acceptor
1 3 anion
1 4 acceptor
6 10 12 15 18 21 22 rings
6 5 6 9 10 11 12 rings
6 8 13 14 17 19 20 rings

> <PUBCHEM_HEAVY_ATOM_COUNT>
23

> <PUBCHEM_ATOM_DEF_STEREO_COUNT>
0

> <PUBCHEM_ATOM_UDEF_STEREO_COUNT>
0

> <PUBCHEM_BOND_DEF_STEREO_COUNT>
0

> <PUBCHEM_BOND_UDEF_STEREO_COUNT>
0

> <PUBCHEM_ISOTOPIC_ATOM_COUNT>
0

> <PUBCHEM_COMPONENT_COUNT>
1

> <PUBCHEM_CACTVS_TAUTO_COUNT>
1

> <PUBCHEM_CONFORMER_ID>
0000F76B00000002

> <PUBCHEM_MMFF94_ENERGY>
106.2489

> <PUBCHEM_FEATURE_SELFOVERLAP>
40.708

> <PUBCHEM_SHAPE_FINGERPRINT>
10 15 18271793667303675456
10906281 52 18266201515882226389
12035758 1 18060132176286037506
12107183 9 17029072611902836720
12119455 92 17846494842031478046
12166972 35 16877949368602548317
12236239 1 16805603659404932896
12592029 89 17703225122848007678
13288520 33 18187083957819031129
13583140 156 18119498043454447904
13590594 115 15068619375042727295
13862211 1 18187642540002047035
14115302 16 16878233059998615755
14294032 229 17459737144207988861
14386348 63 18272091586670847163
19141452 34 18130508630336452111
200 152 15719391728700176581
20344682 1 18273215283175246612
204376 136 17203325645645118438
20600515 1 18261967300951376085
21033648 29 17703210854665886112
21267235 1 18114750425592419227
21682296 61 17273711853613820526
22079108 93 16200143326768964202
22224240 67 17489582389819343127
2297311 6 18336272271113021292
23402539 116 18408036321226316767
23557571 272 18338804416068698549
23559900 14 18335143081324325652
26918003 58 17418379112211121163
3004659 81 17749113300862501204
335352 9 18259702312105183229
34797466 226 18335997436556618884
465052 167 18342461456452014394
474 4 15122924323195236306
5104073 3 18058453093017971962
59755656 215 18260266309086944243
67856867 119 17677059069705358452
7495541 125 18411418444847925928
77492 1 16805326573884896089
81228 2 18194141624364031033

> <PUBCHEM_SHAPE_MULTIPOLES>
434.91
10.98
1.83
1.44
3.18
0.65
-0.41
-2.03
2.68
-1.19
-0.55
1
-0.47
1.21

> <PUBCHEM_SHAPE_SELFOVERLAP>
956.212

> <PUBCHEM_SHAPE_VOLUME>
234.9

> <PUBCHEM_COORDINATE_TYPE>
2
5
10

$$$$
6405
  -OEChem-12311613153D

 18 17  0     0  0  0  0  0  0999 V2000
   -0.4532    0.1494   -1.4220 O   0  0  0  0  0  0  0  0  0  0  0  0
   -0.4208   -0.0035   -0.0013 C   0  0  0  0  0  0  0  0  0  0  0  0
    0.8880   -0.7074    0.4080 C   0  0  0  0  0  0  0  0  0  0  0  0
   -0.5477    1.3918    0.6119 C   0  0  0  0  0  0  0  0  0  0  0  0
   -1.6240   -0.8590    0.4079 C   0  0  0  0  0  0  0  0  0  0  0  0
    2.1577    0.0286   -0.0045 C   0  0  0  0  0  0  0  0  0  0  0  0
    0.9059   -0.8660    1.4931 H   0  0  0  0  0  0  0  0  0  0  0  0
    0.9200   -1.6985   -0.0628 H   0  0  0  0  0  0  0  0  0  0  0  0
   -0.4636    1.3606    1.7030 H   0  0  0  0  0  0  0  0  0  0  0  0
    0.2147    2.0731    0.2193 H   0  0  0  0  0  0  0  0  0  0  0  0
   -1.5130    1.8448    0.3562 H   0  0  0  0  0  0  0  0  0  0  0  0
   -1.6624   -1.0081    1.4920 H   0  0  0  0  0  0  0  0  0  0  0  0
   -2.5645   -0.3954    0.0886 H   0  0  0  0  0  0  0  0  0  0  0  0
   -1.5850   -1.8411   -0.0773 H   0  0  0  0  0  0  0  0  0  0  0  0
    3.0364   -0.5727    0.2512 H   0  0  0  0  0  0  0  0  0  0  0  0
    2.2525    0.9863    0.5154 H   0  0  0  0  0  0  0  0  0  0  0  0
    2.1809    0.2135   -1.0827 H   0  0  0  0  0  0  0  0  0  0  0  0
   -1.2923    0.5789   -1.6614 H   0  0  0  0  0  0  0  0  0  0  0  0
  1  2  1  0  0  0  0
  1 18  1  0  0  0  0
  2  3  1  0  0  0  0
  2  4  1  0  0  0  0
  2  5  1  0  0  0  0
  3  6  1  0  0  0  0
  3  7  1  0  0  0  0
  3  8  1  0  0  0  0
  4  9  1  0  0  0  0
  4 10  1  0  0  0  0
  4 11  1  0  0  0  0
  5 12  1  0  0  0  0
  5 13  1  0  0  0  0
  5 14  1  0  0  0  0
  6 15  1  0  0  0  0
  6 16  1  0  0  0  0
  6 17  1  0  0  0  0
M  END
> <PUBCHEM_COMPOUND_CID>
6405

> <PUBCHEM_CONFORMER_RMSD>
0.4

> <PUBCHEM_CONFORMER_DIVERSEORDER>
1
2
3

> <PUBCHEM_MMFF94_PARTIAL_CHARGES>
3
1 -0.68
18 0.4
2 0.28

> <PUBCHEM_EFFECTIVE_ROTOR_COUNT>
1

> <PUBCHEM_PHARMACOPHORE_FEATURES>
4
1 1 acceptor
1 1 donor
1 6 hydrophobe
3 2 4 5 hydrophobe

> <PUBCHEM_HEAVY_ATOM_COUNT>
6

> <PUBCHEM_ATOM_DEF_STEREO_COUNT>
0

> <PUBCHEM_ATOM_UDEF_STEREO_COUNT>
0

> <PUBCHEM_BOND_DEF_STEREO_COUNT>
0

> <PUBCHEM_BOND_UDEF_STEREO_COUNT>
0

> <PUBCHEM_ISOTOPIC_ATOM_COUNT>
0

> <PUBCHEM_COMPONENT_COUNT>
1

> <PUBCHEM_CACTVS_TAUTO_COUNT>
1

> <PUBCHEM_CONFORMER_ID>
0000190500000001

> <PUBCHEM_MMFF94_ENERGY>
9.026

> <PUBCHEM_FEATURE_SELFOVERLAP>
20.298

> <PUBCHEM_SHAPE_FINGERPRINT>
139733 1 10303827470338089563
16714656 1 17346322613141699676
20096714 4 17982172210488107576
21040471 1 17908990902534082104
24536 1 18266444422178914258
29004967 10 18270400610738643834
5943 1 12360987466608676549

> <PUBCHEM_SHAPE_MULTIPOLES>
117.61
2.12
1.16
0.97
0.98
0.35
-0.33
-0.38
0.21
-0.33
0.25
-0.15
0.03
-0.02

> <PUBCHEM_SHAPE_SELFOVERLAP>
206.474

> <PUBCHEM_SHAPE_VOLUME>
79.3

> <PUBCHEM_COORDINATE_TYPE>
2
5
10

$$$$

11543
  -OEChem-12311613153D

 21 20  0     0  0  0  0  0  0999 V2000
   -1.0421   -0.2297   -1.3962 O   0  0  0  0  0  0  0  0  0  0  0  0
   -0.9195    0.0209    0.0056 C   0  0  0  0  0  0  0  0  0  0  0  0
    0.4996    0.5581    0.2806 C   0  0  0  0  0  0  0  0  0  0  0  0
    1.6299   -0.3935   -0.1302 C   0  0  0  0  0  0  0  0  0  0  0  0
   -1.9546    1.0851    0.3853 C   0  0  0  0  0  0  0  0  0  0  0  0
   -1.2083   -1.2800    0.7578 C   0  0  0  0  0  0  0  0  0  0  0  0
    2.9951    0.2392    0.0971 C   0  0  0  0  0  0  0  0  0  0  0  0
    0.6021    0.8016    1.3458 H   0  0  0  0  0  0  0  0  0  0  0  0
    0.6340    1.4954   -0.2761 H   0  0  0  0  0  0  0  0  0  0  0  0
    1.5350   -0.6627   -1.1879 H   0  0  0  0  0  0  0  0  0  0  0  0
    1.5761   -1.3204    0.4505 H   0  0  0  0  0  0  0  0  0  0  0  0
   -2.9704    0.7452    0.1528 H   0  0  0  0  0  0  0  0  0  0  0  0
   -1.7986    2.0040   -0.1912 H   0  0  0  0  0  0  0  0  0  0  0  0
   -1.9076    1.3306    1.4513 H   0  0  0  0  0  0  0  0  0  0  0  0
   -0.5821   -2.1011    0.3934 H   0  0  0  0  0  0  0  0  0  0  0  0
   -2.2441   -1.6006    0.5955 H   0  0  0  0  0  0  0  0  0  0  0  0
   -1.0502   -1.1656    1.8349 H   0  0  0  0  0  0  0  0  0  0  0  0
    3.1387    0.4939    1.1521 H   0  0  0  0  0  0  0  0  0  0  0  0
    3.1084    1.1522   -0.4960 H   0  0  0  0  0  0  0  0  0  0  0  0
    3.7882   -0.4560   -0.1956 H   0  0  0  0  0  0  0  0  0  0  0  0
   -1.9406   -0.5613   -1.5651 H   0  0  0  0  0  0  0  0  0  0  0  0
  1  2  1  0  0  0  0
  1 21  1  0  0  0  0
  2  3  1  0  0  0  0
  2  5  1  0  0  0  0
  2  6  1  0  0  0  0
  3  4  1  0  0  0  0
  3  8  1  0  0  0  0
  3  9  1  0  0  0  0
  4  7  1  0  0  0  0
  4 10  1  0  0  0  0
  4 11  1  0  0  0  0
  5 12  1  0  0  0  0
  5 13  1  0  0  0  0
  5 14  1  0  0  0  0
  6 15  1  0  0  0  0
  6 16  1  0  0  0  0
  6 17  1  0  0  0  0
  7 18  1  0  0  0  0
  7 19  1  0  0  0  0
  7 20  1  0  0  0  0
M  END
> <PUBCHEM_COMPOUND_CID>
11543

> <PUBCHEM_CONFORMER_RMSD>
0.4

> <PUBCHEM_CONFORMER_DIVERSEORDER>
1
4
2
5
3

> <PUBCHEM_MMFF94_PARTIAL_CHARGES>
3
1 -0.68
2 0.28
21 0.4

> <PUBCHEM_EFFECTIVE_ROTOR_COUNT>
2

> <PUBCHEM_PHARMACOPHORE_FEATURES>
4
1 1 acceptor
1 1 donor
1 7 hydrophobe
3 2 5 6 hydrophobe

> <PUBCHEM_HEAVY_ATOM_COUNT>
7

> <PUBCHEM_ATOM_DEF_STEREO_COUNT>
0

> <PUBCHEM_ATOM_UDEF_STEREO_COUNT>
0

> <PUBCHEM_BOND_DEF_STEREO_COUNT>
0

> <PUBCHEM_BOND_UDEF_STEREO_COUNT>
0

> <PUBCHEM_ISOTOPIC_ATOM_COUNT>
0

> <PUBCHEM_COMPONENT_COUNT>
1

> <PUBCHEM_CACTVS_TAUTO_COUNT>
1

> <PUBCHEM_CONFORMER_ID>
00002D1700000001

> <PUBCHEM_MMFF94_ENERGY>
8.8284

> <PUBCHEM_FEATURE_SELFOVERLAP>
20.297

> <PUBCHEM_SHAPE_FINGERPRINT>
14390081 3 18131347510136653568
16714656 1 17095525088766740811
21040471 1 18262807245955915249
23235687 12 17531254980186951870
24536 1 18336537317639280256
29004967 10 18272378593845023106
369184 2 16805316717166956432
5460574 1 7997967972918935040
5943 1 16809019945528320847

> <PUBCHEM_SHAPE_MULTIPOLES>
138.19
3.4
1.11
0.93
2.7
0.17
0.26
-0.47
-0.3
-0.58
-0.23
-0.31
0.07
0.05

> <PUBCHEM_SHAPE_SELFOVERLAP>
244.231

> <PUBCHEM_SHAPE_VOLUME>
92.3

> <PUBCHEM_COORDINATE_TYPE>
2
5
10

$$$$

48575
  -OEChem-12311613163D

 38 39  0     0  0  0  0  0  0999 V2000
    2.3935   -0.2381   -2.0524 O   0  0  0  0  0  0  0  0  0  0  0  0
   -0.2556    0.0666    1.8128 O   0  0  0  0  0  0  0  0  0  0  0  0
    2.6903    3.4095    0.7160 O   0  0  0  0  0  0  0  0  0  0  0  0
    2.4682    1.6285   -0.7208 N   0  0  0  0  0  0  0  0  0  0  0  0
    1.1454    1.7803    1.2104 N   0  0  0  0  0  0  0  0  0  0  0  0
    0.5914    0.0701   -0.4594 C   0  0  0  0  0  0  0  0  0  0  0  0
    0.4207   -1.4560   -0.4561 C   0  0  0  0  0  0  0  0  0  0  0  0
   -0.5407    0.7067   -1.2852 C   0  0  0  0  0  0  0  0  0  0  0  0
    1.5441   -2.1282    0.3219 C   0  0  0  0  0  0  0  0  0  0  0  0
    1.9042    0.4347   -1.1454 C   0  0  0  0  0  0  0  0  0  0  0  0
    0.4584    0.6009    0.9645 C   0  0  0  0  0  0  0  0  0  0  0  0
   -1.8829    0.4043   -0.6887 C   0  0  0  0  0  0  0  0  0  0  0  0
    1.3541   -3.6446    0.3482 C   0  0  0  0  0  0  0  0  0  0  0  0
    2.1283    2.3554    0.4138 C   0  0  0  0  0  0  0  0  0  0  0  0
    2.4492   -4.3295    1.1501 C   0  0  0  0  0  0  0  0  0  0  0  0
   -2.5726   -0.7364   -1.0861 C   0  0  0  0  0  0  0  0  0  0  0  0
   -2.4271    1.2665    0.2573 C   0  0  0  0  0  0  0  0  0  0  0  0
   -3.8210   -1.0179   -0.5312 C   0  0  0  0  0  0  0  0  0  0  0  0
   -3.6755    0.9848    0.8122 C   0  0  0  0  0  0  0  0  0  0  0  0
   -4.3724   -0.1575    0.4179 C   0  0  0  0  0  0  0  0  0  0  0  0
    0.4022   -1.8487   -1.4811 H   0  0  0  0  0  0  0  0  0  0  0  0
   -0.5123   -1.7652    0.0255 H   0  0  0  0  0  0  0  0  0  0  0  0
   -0.5083    0.3546   -2.3258 H   0  0  0  0  0  0  0  0  0  0  0  0
   -0.4134    1.7963   -1.3541 H   0  0  0  0  0  0  0  0  0  0  0  0
    2.5214   -1.9105   -0.1219 H   0  0  0  0  0  0  0  0  0  0  0  0
    1.5788   -1.7639    1.3548 H   0  0  0  0  0  0  0  0  0  0  0  0
    1.3569   -4.0386   -0.6748 H   0  0  0  0  0  0  0  0  0  0  0  0
    0.3817   -3.8929    0.7896 H   0  0  0  0  0  0  0  0  0  0  0  0
    3.2665    1.9672   -1.2505 H   0  0  0  0  0  0  0  0  0  0  0  0
    0.9681    2.2312    2.1036 H   0  0  0  0  0  0  0  0  0  0  0  0
    2.4510   -3.9828    2.1884 H   0  0  0  0  0  0  0  0  0  0  0  0
    3.4352   -4.1292    0.7188 H   0  0  0  0  0  0  0  0  0  0  0  0
    2.2943   -5.4131    1.1544 H   0  0  0  0  0  0  0  0  0  0  0  0
   -2.1635   -1.4092   -1.8347 H   0  0  0  0  0  0  0  0  0  0  0  0
   -1.9055    2.1691    0.5636 H   0  0  0  0  0  0  0  0  0  0  0  0
   -4.3651   -1.9054   -0.8406 H   0  0  0  0  0  0  0  0  0  0  0  0
   -4.1067    1.6567    1.5486 H   0  0  0  0  0  0  0  0  0  0  0  0
   -5.3450   -0.3760    0.8489 H   0  0  0  0  0  0  0  0  0  0  0  0
  1 10  2  0  0  0  0
  2 11  2  0  0  0  0
  3 14  2  0  0  0  0
  4 10  1  0  0  0  0
  4 14  1  0  0  0  0
  4 29  1  0  0  0  0
  5 11  1  0  0  0  0
  5 14  1  0  0  0  0
  5 30  1  0  0  0  0
  6  7  1  0  0  0  0
  6  8  1  0  0  0  0
  6 10  1  0  0  0  0
  6 11  1  0  0  0  0
  7  9  1  0  0  0  0
  7 21  1  0  0  0  0
  7 22  1  0  0  0  0
  8 12  1  0  0  0  0
  8 23  1  0  0  0  0
  8 24  1  0  0  0  0
  9 13  1  0  0  0  0
  9 25  1  0  0  0  0
  9 26  1  0  0  0  0
 12 16  2  0  0  0  0
 12 17  1  0  0  0  0
 13 15  1  0  0  0  0
 13 27  1  0  0  0  0
 13 28  1  0  0  0  0
 15 31  1  0  0  0  0
 15 32  1  0  0  0  0
 15 33  1  0  0  0  0
 16 18  1  0  0  0  0
 16 34  1  0  0  0  0
 17 19  2  0  0  0  0
 17 35  1  0  0  0  0
 18 20  2  0  0  0  0
 18 36  1  0  0  0  0
 19 20  1  0  0  0  0
 19 37  1  0  0  0  0
 20 38  1  0  0  0  0
M  END
> <PUBCHEM_COMPOUND_CID>
48575

> <PUBCHEM_CONFORMER_RMSD>
0.8

> <PUBCHEM_CONFORMER_DIVERSEORDER>
1
10
9
6
12
11
8
7
2
3
4
5

> <PUBCHEM_MMFF94_PARTIAL_CHARGES>
23
1 -0.57
10 0.57
11 0.57
12 -0.14
14 0.69
16 -0.15
17 -0.15
18 -0.15
19 -0.15
2 -0.57
20 -0.15
29 0.37
3 -0.57
30 0.37
34 0.15
35 0.15
36 0.15
37 0.15
38 0.15
4 -0.49
5 -0.49
6 0.12
8 0.14

> <PUBCHEM_EFFECTIVE_ROTOR_COUNT>
5.6

> <PUBCHEM_PHARMACOPHORE_FEATURES>
8
1 1 acceptor
1 15 hydrophobe
1 2 acceptor
1 3 acceptor
1 4 donor
1 5 donor
6 12 16 17 18 19 20 rings
6 4 5 6 10 11 14 rings

> <PUBCHEM_HEAVY_ATOM_COUNT>
20

> <PUBCHEM_ATOM_DEF_STEREO_COUNT>
0

> <PUBCHEM_ATOM_UDEF_STEREO_COUNT>
0

> <PUBCHEM_BOND_DEF_STEREO_COUNT>
0

> <PUBCHEM_BOND_UDEF_STEREO_COUNT>
0

> <PUBCHEM_ISOTOPIC_ATOM_COUNT>
0

> <PUBCHEM_COMPONENT_COUNT>
1

> <PUBCHEM_CACTVS_TAUTO_COUNT>
5

> <PUBCHEM_CONFORMER_ID>
0000BDBF00000001

> <PUBCHEM_MMFF94_ENERGY>
55.0533

> <PUBCHEM_FEATURE_SELFOVERLAP>
40.636

> <PUBCHEM_SHAPE_FINGERPRINT>
11578080 2 18047457938344352044
12532896 13 18051691337046247718
12553582 1 17980199682280773391
12788726 201 17473281876529348618
13004483 165 17471565530104028099
13132413 78 18127680539946834202
13134695 92 18122044417356818679
13140716 1 18265329680338916538
13533116 47 18335425630670952235
13583140 156 17979113485589341593
13955234 65 18409167710365244483
14178342 30 18189056559263147947
14787075 74 17480291714512686639
15230672 131 15096499287699818647
15375462 189 18267593411693030407
16945 1 18410007698103471117
1813 80 17979078180235877511
18186145 218 18342463689539752565
19078846 21 17986398784877879889
19765921 60 17986953140195709456
201361 129 18342462551584174961
20600515 1 17554883274276902553
21452121 199 18118673319017258130
21524375 3 17986099936489775668
22112679 90 17696211213488140154
2255824 54 18412547621455709982
229495 10 17393646538299461333
23419403 2 16666608815623405394
25 1 17845096353425210844
2748010 2 16258127463797280297
394222 165 18202286926254784427
458136 41 18262249905324682511
474 4 18193562387768165821
633830 44 18129384963343215741
6442390 28 18049173451197786363
7097593 13 18195810674329764043
7364860 26 18410289177312059687
81228 2 17400075773808056294

> <PUBCHEM_SHAPE_MULTIPOLES>
384.02
5.84
3.9
1.45
6.2
2.1
-0.15
1.73
0.46
-5.99
1.6
-0.42
-0.15
-0.83

> <PUBCHEM_SHAPE_SELFOVERLAP>
812.412

> <PUBCHEM_SHAPE_VOLUME>
211.4

> <PUBCHEM_COORDINATE_TYPE>
2
5
10

$$$$
131664
  -OEChem-12311613173D

 51 54  0     1  0  0  0  0  0999 V2000
   -5.8515   -0.0829    2.1483 Cl  0  0  0  0  0  0  0  0  0  0  0  0
    0.9712   -1.1897    2.2325 O   0  0  0  0  0  0  0  0  0  0  0  0
    2.6649    1.9085   -0.3755 O   0  0  0  0  0  0  0  0  0  0  0  0
    0.9536   -1.1193   -0.1395 N   0  0  0  0  0  0  0  0  0  0  0  0
   -1.3062   -0.8351    0.5003 N   0  0  0  0  0  0  0  0  0  0  0  0
   -3.4998   -0.5401    1.1597 N   0  0  0  0  0  0  0  0  0  0  0  0
    1.9794   -0.9495   -1.1855 C   0  0  1  0  0  0  0  0  0  0  0  0
    1.7929    0.3315   -1.9782 C   0  0  0  0  0  0  0  0  0  0  0  0
    3.2511   -0.9467   -0.3877 C   0  0  0  0  0  0  0  0  0  0  0  0
    2.9709   -1.0111    0.9724 C   0  0  0  0  0  0  0  0  0  0  0  0
    1.5198   -1.1089    1.1476 C   0  0  0  0  0  0  0  0  0  0  0  0
    1.7271    1.5658   -1.0936 C   0  0  0  0  0  0  0  0  0  0  0  0
    0.4277    2.3545   -1.1660 C   0  0  0  0  0  0  0  0  0  0  0  0
    0.4171    3.5552   -0.2194 C   0  0  0  0  0  0  0  0  0  0  0  0
   -0.9168    4.3239   -0.2200 C   0  0  0  0  0  0  0  0  0  0  0  0
   -0.4017   -1.2781   -0.4108 C   0  0  0  0  0  0  0  0  0  0  0  0
    4.5634   -0.8833   -0.8253 C   0  0  0  0  0  0  0  0  0  0  0  0
    3.9595   -1.0087    1.9393 C   0  0  0  0  0  0  0  0  0  0  0  0
    5.5833   -0.8784    0.1315 C   0  0  0  0  0  0  0  0  0  0  0  0
    5.2831   -0.9386    1.5033 C   0  0  0  0  0  0  0  0  0  0  0  0
   -2.0622    3.3765    0.1452 C   0  0  0  0  0  0  0  0  0  0  0  0
   -0.9051    5.5141    0.7402 C   0  0  0  0  0  0  0  0  0  0  0  0
   -0.7547   -1.8825   -1.6019 C   0  0  0  0  0  0  0  0  0  0  0  0
   -2.1054   -2.0356   -1.8635 C   0  0  0  0  0  0  0  0  0  0  0  0
   -2.6152   -0.9796    0.2551 C   0  0  0  0  0  0  0  0  0  0  0  0
   -3.0545   -1.5848   -0.9351 C   0  0  0  0  0  0  0  0  0  0  0  0
   -4.4308   -1.7238   -1.1641 C   0  0  0  0  0  0  0  0  0  0  0  0
   -5.3382   -1.2672   -0.2236 C   0  0  0  0  0  0  0  0  0  0  0  0
   -4.8232   -0.6862    0.9144 C   0  0  0  0  0  0  0  0  0  0  0  0
    1.9930   -1.8318   -1.8348 H   0  0  0  0  0  0  0  0  0  0  0  0
    2.6146    0.4851   -2.6882 H   0  0  0  0  0  0  0  0  0  0  0  0
    0.8782    0.2826   -2.5794 H   0  0  0  0  0  0  0  0  0  0  0  0
    0.2899    2.6928   -2.1986 H   0  0  0  0  0  0  0  0  0  0  0  0
   -0.3721    1.6545   -0.9146 H   0  0  0  0  0  0  0  0  0  0  0  0
    1.2271    4.2417   -0.4978 H   0  0  0  0  0  0  0  0  0  0  0  0
    0.6420    3.2164    0.8007 H   0  0  0  0  0  0  0  0  0  0  0  0
   -1.0992    4.7100   -1.2309 H   0  0  0  0  0  0  0  0  0  0  0  0
    4.8016   -0.8344   -1.8824 H   0  0  0  0  0  0  0  0  0  0  0  0
    3.7256   -1.0640    2.9961 H   0  0  0  0  0  0  0  0  0  0  0  0
    6.6208   -0.8266   -0.1881 H   0  0  0  0  0  0  0  0  0  0  0  0
    6.0913   -0.9345    2.2297 H   0  0  0  0  0  0  0  0  0  0  0  0
   -2.9936    3.9355    0.2901 H   0  0  0  0  0  0  0  0  0  0  0  0
   -2.2592    2.6505   -0.6494 H   0  0  0  0  0  0  0  0  0  0  0  0
   -1.8538    2.8310    1.0720 H   0  0  0  0  0  0  0  0  0  0  0  0
   -0.7526    5.1872    1.7744 H   0  0  0  0  0  0  0  0  0  0  0  0
   -0.0988    6.2087    0.4825 H   0  0  0  0  0  0  0  0  0  0  0  0
   -1.8501    6.0651    0.6928 H   0  0  0  0  0  0  0  0  0  0  0  0
   -0.0411   -2.2521   -2.3278 H   0  0  0  0  0  0  0  0  0  0  0  0
   -2.4170   -2.5104   -2.7908 H   0  0  0  0  0  0  0  0  0  0  0  0
   -4.7989   -2.1883   -2.0758 H   0  0  0  0  0  0  0  0  0  0  0  0
   -6.4047   -1.3687   -0.3891 H   0  0  0  0  0  0  0  0  0  0  0  0
  1 29  1  0  0  0  0
  2 11  2  0  0  0  0
  3 12  2  0  0  0  0
  4  7  1  0  0  0  0
  4 11  1  0  0  0  0
  4 16  1  0  0  0  0
  5 16  2  0  0  0  0
  5 25  1  0  0  0  0
  6 25  1  0  0  0  0
  6 29  2  0  0  0  0
  7  8  1  0  0  0  0
  7  9  1  0  0  0  0
  7 30  1  0  0  0  0
  8 12  1  0  0  0  0
  8 31  1  0  0  0  0
  8 32  1  0  0  0  0
  9 10  1  0  0  0  0
  9 17  2  0  0  0  0
 10 11  1  0  0  0  0
 10 18  2  0  0  0  0
 12 13  1  0  0  0  0
 13 14  1  0  0  0  0
 13 33  1  0  0  0  0
 13 34  1  0  0  0  0
 14 15  1  0  0  0  0
 14 35  1  0  0  0  0
 14 36  1  0  0  0  0
 15 21  1  0  0  0  0
 15 22  1  0  0  0  0
 15 37  1  0  0  0  0
 16 23  1  0  0  0  0
 17 19  1  0  0  0  0
 17 38  1  0  0  0  0
 18 20  1  0  0  0  0
 18 39  1  0  0  0  0
 19 20  2  0  0  0  0
 19 40  1  0  0  0  0
 20 41  1  0  0  0  0
 21 42  1  0  0  0  0
 21 43  1  0  0  0  0
 21 44  1  0  0  0  0
 22 45  1  0  0  0  0
 22 46  1  0  0  0  0
 22 47  1  0  0  0  0
 23 24  2  0  0  0  0
 23 48  1  0  0  0  0
 24 26  1  0  0  0  0
 24 49  1  0  0  0  0
 25 26  2  0  0  0  0
 26 27  1  0  0  0  0
 27 28  2  0  0  0  0
 27 50  1  0  0  0  0
 28 29  1  0  0  0  0
 28 51  1  0  0  0  0
M  END
> <PUBCHEM_COMPOUND_CID>
131664

> <PUBCHEM_CONFORMER_RMSD>
0.8

> <PUBCHEM_CONFORMER_DIVERSEORDER>
1
106
170
18
152
204
27
73
122
61
96
128
31
177
97
187
87
111
165
54
108
65
162
102
160
14
146
42
142
110
52
151
132
135
83
86
60
158
191
192
59
16
202
17
12
21
186
103
201
208
115
81
145
113
181
50
104
193
174
101
93
15
70
78
148
209
131
164
22
116
112
25
74
38
99
184
129
196
88
11
72
153
117
56
123
168
140
109
149
157
85
173
4
124
24
36
76
134
55
199
195
176
194
19
39
156
82
114
77
58
29
207
125
46
30
133
185
182
203
53
180
171
8
13
7
155
167
139
169
136
198
161
10
143
105
49
127
66
33
89
41
92
141
26
183
9
95
119
62
47
206
20
94
118
51
120
172
44
57
130
126
90
154
3
68
175
84
67
121
64
138
159
80
150
71
2
37
23
137
100
40
69
210
200
107
34
5
190
189
48
75
166
188
63
79
98
43
6
35
28
178
197
91
32
147
163
45
144
179
205

> <PUBCHEM_MMFF94_PARTIAL_CHARGES>
32
1 -0.18
10 0.09
11 0.54
12 0.45
13 0.06
16 0.43
17 -0.15
18 -0.15
19 -0.15
2 -0.57
20 -0.15
23 -0.15
24 -0.15
25 0.62
27 -0.15
28 -0.15
29 0.49
3 -0.57
38 0.15
39 0.15
4 -0.48
40 0.15
41 0.15
48 0.15
49 0.15
5 -0.62
50 0.15
51 0.15
6 -0.62
7 0.44
8 0.06
9 -0.14

> <PUBCHEM_EFFECTIVE_ROTOR_COUNT>
6.4

> <PUBCHEM_PHARMACOPHORE_FEATURES>
8
1 2 acceptor
1 3 acceptor
1 6 acceptor
3 15 21 22 hydrophobe
5 4 7 9 10 11 rings
6 5 16 23 24 25 26 rings
6 6 25 26 27 28 29 rings
6 9 10 17 18 19 20 rings

> <PUBCHEM_HEAVY_ATOM_COUNT>
29

> <PUBCHEM_ATOM_DEF_STEREO_COUNT>
0

> <PUBCHEM_ATOM_UDEF_STEREO_COUNT>
1

> <PUBCHEM_BOND_DEF_STEREO_COUNT>
0

> <PUBCHEM_BOND_UDEF_STEREO_COUNT>
0

> <PUBCHEM_ISOTOPIC_ATOM_COUNT>
0

> <PUBCHEM_COMPONENT_COUNT>
1

> <PUBCHEM_CACTVS_TAUTO_COUNT>
3

> <PUBCHEM_CONFORMER_ID>
0002025000000001

> <PUBCHEM_MMFF94_ENERGY>
84.0546

> <PUBCHEM_FEATURE_SELFOVERLAP>
40.718

> <PUBCHEM_SHAPE_FINGERPRINT>
10940486 97 17772746315243382302
11421498 54 18187641354100671306
11595378 159 18338509729899251210
11646440 116 18259987089073072146
12166972 35 18057304280067422439
12236239 1 18342455975652095934
12293681 4 18188505626122066026
12403259 118 18271820038271282979
12422481 6 18201167537861091219
12633257 1 18260274074730732659
12788726 201 18335428945757742780
13583140 156 17972886040697719799
13590594 115 18410295817347537884
13692114 37 17548407112446254877
14028597 1 17749384820047037096
14117953 113 18271815562836116045
14950920 106 17896620521355389283
14955137 171 18408889567798313134
15238133 3 18114473275041062095
15420108 30 17699281381003197452
17980427 23 17631444729993163461
1813 80 18412541024734427622
19301679 30 18263925436402632978
20600515 1 18130791204254851103
21033648 29 17703214149021885491
21041028 32 18334855017488273660
21133410 38 17122549749967552409
21344244 78 18339348781693082833
21927370 108 17823123563722929536
23845131 108 17547283411373185692
3052486 1 18263932042415021476
345986 75 18115008745772501306
469060 322 18339095795603718521
474 4 17762898066934250461
508180 173 17902749143080629485
513202 73 18194685861055487302
5895379 119 17774461441507528785
6086070 43 18263063549073693159
6438718 38 18193277399433678312
653340 110 18126571115461361713
7471813 234 18335693974935334124
7495541 125 16587742066318205998
9777508 108 17981604866831037308

> <PUBCHEM_SHAPE_MULTIPOLES>
571.99
10.7
4.63
1.93
2.54
11.06
-0.42
-7.33
-4.7
2.68
0.36
0.08
-0.81
-1.55

> <PUBCHEM_SHAPE_SELFOVERLAP>
1241.4

> <PUBCHEM_SHAPE_VOLUME>
314.6

> <PUBCHEM_COORDINATE_TYPE>
2
5
10

$$$$
49344
  -OEChem-12311613173D

 29 29  0     1  0  0  0  0  0999 V2000
    2.2014    2.0028   -1.0971 O   0  0  0  0  0  0  0  0  0  0  0  0
    1.4019    2.6057    0.9390 O   0  0  0  0  0  0  0  0  0  0  0  0
    3.0336   -2.5250   -0.0161 N   0  0  0  0  0  0  0  0  0  0  0  0
    1.3181   -0.7171   -0.3024 C   0  0  1  0  0  0  0  0  0  0  0  0
   -0.1821   -0.4664   -0.1849 C   0  0  0  0  0  0  0  0  0  0  0  0
    2.1005    0.3000    0.5595 C   0  0  0  0  0  0  0  0  0  0  0  0
    1.6161   -2.1906    0.0610 C   0  0  0  0  0  0  0  0  0  0  0  0
   -0.8893   -0.1273   -1.3182 C   0  0  0  0  0  0  0  0  0  0  0  0
   -0.7798   -0.5878    1.0510 C   0  0  0  0  0  0  0  0  0  0  0  0
   -2.8920   -0.0139    0.0281 C   0  0  0  0  0  0  0  0  0  0  0  0
   -2.2609    0.1019   -1.2104 C   0  0  0  0  0  0  0  0  0  0  0  0
   -2.1516   -0.3588    1.1588 C   0  0  0  0  0  0  0  0  0  0  0  0
    1.8428    1.7464    0.1885 C   0  0  0  0  0  0  0  0  0  0  0  0
   -4.3587    0.2302    0.1431 C   0  0  0  0  0  0  0  0  0  0  0  0
    1.6198   -0.5697   -1.3490 H   0  0  0  0  0  0  0  0  0  0  0  0
    1.8701    0.1813    1.6249 H   0  0  0  0  0  0  0  0  0  0  0  0
    3.1817    0.1463    0.4631 H   0  0  0  0  0  0  0  0  0  0  0  0
    1.0665   -2.8547   -0.6171 H   0  0  0  0  0  0  0  0  0  0  0  0
    1.2749   -2.4305    1.0741 H   0  0  0  0  0  0  0  0  0  0  0  0
   -0.4080   -0.0346   -2.2869 H   0  0  0  0  0  0  0  0  0  0  0  0
   -0.2223   -0.8536    1.9433 H   0  0  0  0  0  0  0  0  0  0  0  0
   -2.8273    0.3682   -2.0988 H   0  0  0  0  0  0  0  0  0  0  0  0
   -2.6323   -0.4535    2.1289 H   0  0  0  0  0  0  0  0  0  0  0  0
    3.5525   -2.0121    0.6946 H   0  0  0  0  0  0  0  0  0  0  0  0
    3.4085   -2.2248   -0.9150 H   0  0  0  0  0  0  0  0  0  0  0  0
   -4.6959    0.9659   -0.5951 H   0  0  0  0  0  0  0  0  0  0  0  0
   -4.9084   -0.7029   -0.0153 H   0  0  0  0  0  0  0  0  0  0  0  0
   -4.6172    0.6265    1.1309 H   0  0  0  0  0  0  0  0  0  0  0  0
    2.0505    2.9417   -1.3380 H   0  0  0  0  0  0  0  0  0  0  0  0
  1 13  1  0  0  0  0
  1 29  1  0  0  0  0
  2 13  2  0  0  0  0
  3  7  1  0  0  0  0
  3 24  1  0  0  0  0
  3 25  1  0  0  0  0
  4  5  1  0  0  0  0
  4  6  1  0  0  0  0
  4  7  1  0  0  0  0
  4 15  1  0  0  0  0
  5  8  2  0  0  0  0
  5  9  1  0  0  0  0
  6 13  1  0  0  0  0
  6 16  1  0  0  0  0
  6 17  1  0  0  0  0
  7 18  1  0  0  0  0
  7 19  1  0  0  0  0
  8 11  1  0  0  0  0
  8 20  1  0  0  0  0
  9 12  2  0  0  0  0
  9 21  1  0  0  0  0
 10 11  2  0  0  0  0
 10 12  1  0  0  0  0
 10 14  1  0  0  0  0
 11 22  1  0  0  0  0
 12 23  1  0  0  0  0
 14 26  1  0  0  0  0
 14 27  1  0  0  0  0
 14 28  1  0  0  0  0
M  END
> <PUBCHEM_COMPOUND_CID>
49344

> <PUBCHEM_CONFORMER_RMSD>
0.6

> <PUBCHEM_CONFORMER_DIVERSEORDER>
2
14
27
26
24
15
18
10
13
25
11
19
22
23
20
8
16
3
17
7
1
21
12
6
4
9
5

> <PUBCHEM_MMFF94_PARTIAL_CHARGES>
21
1 -0.65
10 -0.14
11 -0.15
12 -0.15
13 0.66
14 0.14
2 -0.57
20 0.15
21 0.15
22 0.15
23 0.15
24 0.36
25 0.36
29 0.5
3 -0.99
4 0.14
5 -0.14
6 0.06
7 0.27
8 -0.15
9 -0.15

> <PUBCHEM_EFFECTIVE_ROTOR_COUNT>
4

> <PUBCHEM_PHARMACOPHORE_FEATURES>
6
1 1 acceptor
1 2 acceptor
1 3 cation
1 3 donor
3 1 2 13 anion
6 5 8 9 10 11 12 rings

> <PUBCHEM_HEAVY_ATOM_COUNT>
14

> <PUBCHEM_ATOM_DEF_STEREO_COUNT>
0

> <PUBCHEM_ATOM_UDEF_STEREO_COUNT>
1

> <PUBCHEM_BOND_DEF_STEREO_COUNT>
0

> <PUBCHEM_BOND_UDEF_STEREO_COUNT>
0

> <PUBCHEM_ISOTOPIC_ATOM_COUNT>
0

> <PUBCHEM_COMPONENT_COUNT>
1

> <PUBCHEM_CACTVS_TAUTO_COUNT>
1

> <PUBCHEM_CONFORMER_ID>
0000C0C000000002

> <PUBCHEM_MMFF94_ENERGY>
29.3544

> <PUBCHEM_FEATURE_SELFOVERLAP>
30.504

> <PUBCHEM_SHAPE_FINGERPRINT>
1 1 18339075016462158460
10465860 250 17751628867587690666
10857977 72 16660361506797722727
11031198 65 18338240465261147261
12326174 3 18271537437364060470
13538477 17 17274811480831017127
14115302 16 17346304982633623063
14289901 80 18341334491730827963
14817 1 16970563689900290668
15219456 202 18114186358087644523
15775835 57 18058167404604769565
16945 1 18340476833251855255
17357990 137 17346054302202841265
17841504 4 18337955584475539123
1813 80 17772202916271229470
18186145 218 17968088678196946893
19765921 60 17486200412063417041
19786989 88 18188765171016472125
20339313 130 18271808952158747526
20559304 39 18130787841179309865
20645464 45 17676198104718505763
20645476 183 17703787072094771599
20671657 1 18342739649735769534
20708731 107 18408608054303540310
21041028 32 18197496229644208952
21296965 67 18194398879708708786
21501502 16 18263920106511261467
21524375 3 18046899665562303928
21639500 275 18340474664525589901
21947302 44 18333449858839279313
22096605 113 18341045337093934009
23175994 123 18118129073894363014
23419403 2 17411578486722201984
23526113 38 17750526078451501002
23598291 2 18060409192976042087
25 1 18338800125454339992
2748010 2 17458063772591895455
305870 269 18270389633102948056
3286 77 18334576794155279391
6049 1 17968370152894141581
7364860 26 18412262835233462530
77492 1 17489301984210283351
81228 2 17545602249825466058

> <PUBCHEM_SHAPE_MULTIPOLES>
271.39
5.32
2.25
1.18
4.06
0.37
0.11
-0.23
-0.15
-3.28
-0.17
0.36
0.18
0.13

> <PUBCHEM_SHAPE_SELFOVERLAP>
554.098

> <PUBCHEM_SHAPE_VOLUME>
156.7

> <PUBCHEM_COORDINATE_TYPE>
2
5
10

$$$$
86130531
  -OEChem-12311612303D

 59 61  0     1  0  0  0  0  0999 V2000
   -2.1277    2.1747   -1.2883 O   0  0  0  0  0  0  0  0  0  0  0  0
    1.6380   -0.0988   -0.3919 N   0  0  1  0  0  0  0  0  0  0  0  0
   -2.5912    0.1047   -0.2307 N   0  0  0  0  0  0  0  0  0  0  0  0
   -1.2646   -0.4654   -0.1527 C   0  0  1  0  0  0  0  0  0  0  0  0
   -0.5525   -0.4718   -1.5213 C   0  0  1  0  0  0  0  0  0  0  0  0
   -0.4337    0.3090    0.8759 C   0  0  0  0  0  0  0  0  0  0  0  0
    0.9142   -0.9222   -1.3696 C   0  0  0  0  0  0  0  0  0  0  0  0
    1.0095   -0.1854    0.9309 C   0  0  0  0  0  0  0  0  0  0  0  0
   -1.2585   -1.3813   -2.5335 C   0  0  0  0  0  0  0  0  0  0  0  0
    3.0411   -0.5065   -0.3182 C   0  0  0  0  0  0  0  0  0  0  0  0
    3.9208    0.6440    0.1721 C   0  0  0  0  0  0  0  0  0  0  0  0
   -3.7146   -0.7504    0.1466 C   0  0  0  0  0  0  0  0  0  0  0  0
   -2.8343    1.4720   -0.5614 C   0  0  0  0  0  0  0  0  0  0  0  0
   -4.1165    2.0582    0.0254 C   0  0  0  0  0  0  0  0  0  0  0  0
    5.3734    0.2437    0.2316 C   0  0  0  0  0  0  0  0  0  0  0  0
   -4.7632   -0.9597   -0.7491 C   0  0  0  0  0  0  0  0  0  0  0  0
   -3.7384   -1.3571    1.4023 C   0  0  0  0  0  0  0  0  0  0  0  0
   -4.0088    3.5594    0.2964 C   0  0  0  0  0  0  0  0  0  0  0  0
   -5.8358   -1.7757   -0.3890 C   0  0  0  0  0  0  0  0  0  0  0  0
   -4.8109   -2.1730    1.7626 C   0  0  0  0  0  0  0  0  0  0  0  0
    5.8964   -0.3130    1.3987 C   0  0  0  0  0  0  0  0  0  0  0  0
    6.1941    0.4302   -0.8806 C   0  0  0  0  0  0  0  0  0  0  0  0
   -5.8596   -2.3823    0.8668 C   0  0  0  0  0  0  0  0  0  0  0  0
   -2.9161    3.8663    1.3076 C   0  0  0  0  0  0  0  0  0  0  0  0
    7.2403   -0.6832    1.4537 C   0  0  0  0  0  0  0  0  0  0  0  0
    7.5378    0.0602   -0.8258 C   0  0  0  0  0  0  0  0  0  0  0  0
    8.0609   -0.4965    0.3413 C   0  0  0  0  0  0  0  0  0  0  0  0
   -1.3344   -1.5082    0.1867 H   0  0  0  0  0  0  0  0  0  0  0  0
   -0.5329    0.5378   -1.9471 H   0  0  0  0  0  0  0  0  0  0  0  0
   -0.8866    0.2173    1.8708 H   0  0  0  0  0  0  0  0  0  0  0  0
   -0.4241    1.3818    0.6441 H   0  0  0  0  0  0  0  0  0  0  0  0
    1.3989   -0.8336   -2.3507 H   0  0  0  0  0  0  0  0  0  0  0  0
    0.9546   -1.9827   -1.0848 H   0  0  0  0  0  0  0  0  0  0  0  0
    1.5427    0.4362    1.6582 H   0  0  0  0  0  0  0  0  0  0  0  0
    1.0293   -1.2155    1.3111 H   0  0  0  0  0  0  0  0  0  0  0  0
   -1.3350   -2.4080   -2.1599 H   0  0  0  0  0  0  0  0  0  0  0  0
   -0.7104   -1.4067   -3.4815 H   0  0  0  0  0  0  0  0  0  0  0  0
   -2.2685   -1.0209   -2.7507 H   0  0  0  0  0  0  0  0  0  0  0  0
    3.1704   -1.4030    0.3032 H   0  0  0  0  0  0  0  0  0  0  0  0
    3.4016   -0.7828   -1.3190 H   0  0  0  0  0  0  0  0  0  0  0  0
    3.6137    0.9884    1.1668 H   0  0  0  0  0  0  0  0  0  0  0  0
    3.8107    1.5138   -0.4894 H   0  0  0  0  0  0  0  0  0  0  0  0
   -4.3755    1.5661    0.9681 H   0  0  0  0  0  0  0  0  0  0  0  0
   -4.9278    1.8852   -0.6899 H   0  0  0  0  0  0  0  0  0  0  0  0
   -4.7541   -0.5005   -1.7342 H   0  0  0  0  0  0  0  0  0  0  0  0
   -2.9357   -1.1983    2.1170 H   0  0  0  0  0  0  0  0  0  0  0  0
   -3.8067    4.1032   -0.6335 H   0  0  0  0  0  0  0  0  0  0  0  0
   -4.9690    3.9229    0.6802 H   0  0  0  0  0  0  0  0  0  0  0  0
   -6.6514   -1.9401   -1.0870 H   0  0  0  0  0  0  0  0  0  0  0  0
   -4.8306   -2.6437    2.7411 H   0  0  0  0  0  0  0  0  0  0  0  0
    5.2664   -0.4653    2.2711 H   0  0  0  0  0  0  0  0  0  0  0  0
    5.7978    0.8613   -1.7961 H   0  0  0  0  0  0  0  0  0  0  0  0
   -6.6947   -3.0175    1.1473 H   0  0  0  0  0  0  0  0  0  0  0  0
   -3.0790    3.3183    2.2414 H   0  0  0  0  0  0  0  0  0  0  0  0
   -2.9153    4.9357    1.5424 H   0  0  0  0  0  0  0  0  0  0  0  0
   -1.9216    3.6128    0.9298 H   0  0  0  0  0  0  0  0  0  0  0  0
    7.6474   -1.1172    2.3622 H   0  0  0  0  0  0  0  0  0  0  0  0
    8.1768    0.2050   -1.6920 H   0  0  0  0  0  0  0  0  0  0  0  0
    9.1071   -0.7849    0.3838 H   0  0  0  0  0  0  0  0  0  0  0  0
  1 13  2  0  0  0  0
  2  7  1  0  0  0  0
  2  8  1  0  0  0  0
  2 10  1  0  0  0  0
  3  4  1  0  0  0  0
  3 12  1  0  0  0  0
  3 13  1  0  0  0  0
  4  5  1  0  0  0  0
  4  6  1  0  0  0  0
  4 28  1  0  0  0  0
  5  7  1  0  0  0  0
  5  9  1  0  0  0  0
  5 29  1  0  0  0  0
  6  8  1  0  0  0  0
  6 30  1  0  0  0  0
  6 31  1  0  0  0  0
  7 32  1  0  0  0  0
  7 33  1  0  0  0  0
  8 34  1  0  0  0  0
  8 35  1  0  0  0  0
  9 36  1  0  0  0  0
  9 37  1  0  0  0  0
  9 38  1  0  0  0  0
 10 11  1  0  0  0  0
 10 39  1  0  0  0  0
 10 40  1  0  0  0  0
 11 15  1  0  0  0  0
 11 41  1  0  0  0  0
 11 42  1  0  0  0  0
 12 16  2  0  0  0  0
 12 17  1  0  0  0  0
 13 14  1  0  0  0  0
 14 18  1  0  0  0  0
 14 43  1  0  0  0  0
 14 44  1  0  0  0  0
 15 21  2  0  0  0  0
 15 22  1  0  0  0  0
 16 19  1  0  0  0  0
 16 45  1  0  0  0  0
 17 20  2  0  0  0  0
 17 46  1  0  0  0  0
 18 24  1  0  0  0  0
 18 47  1  0  0  0  0
 18 48  1  0  0  0  0
 19 23  2  0  0  0  0
 19 49  1  0  0  0  0
 20 23  1  0  0  0  0
 20 50  1  0  0  0  0
 21 25  1  0  0  0  0
 21 51  1  0  0  0  0
 22 26  2  0  0  0  0
 22 52  1  0  0  0  0
 23 53  1  0  0  0  0
 24 54  1  0  0  0  0
 24 55  1  0  0  0  0
 24 56  1  0  0  0  0
 25 27  2  0  0  0  0
 25 57  1  0  0  0  0
 26 27  1  0  0  0  0
 26 58  1  0  0  0  0
 27 59  1  0  0  0  0
M  END
> <PUBCHEM_COMPOUND_CID>
86130531

> <PUBCHEM_CONFORMER_RMSD>
1

> <PUBCHEM_CONFORMER_DIVERSEORDER>
1
53
51
91
71
24
118
87
20
33
100
86
75
115
67
43
19
124
116
108
90
104
44
72
95
80
111
39
29
73
123
70
81
55
114
93
69
49
27
106
57
61
89
56
46
48
121
97
65
85
105
99
68
110
125
63
58
28
45
42
103
23
37
117
112
31
109
83
77
94
52
18
60
17
32
92
10
101
78
21
119
14
16
41
4
62
26
98
8
3
54
82
59
66
79
84
120
96
22
34
13
50
35
88
107
64
7
47
9
76
38
6
15
25
122
74
113
30
102
40
5
11
36
12
2

> <PUBCHEM_MMFF94_PARTIAL_CHARGES>
32
1 -0.57
10 0.27
11 0.14
12 0.12
13 0.57
14 0.06
15 -0.14
16 -0.15
17 -0.15
19 -0.15
2 -0.81
20 -0.15
21 -0.15
22 -0.15
23 -0.15
25 -0.15
26 -0.15
27 -0.15
3 -0.48
4 0.3
45 0.15
46 0.15
49 0.15
50 0.15
51 0.15
52 0.15
53 0.15
57 0.15
58 0.15
59 0.15
7 0.27
8 0.27

> <PUBCHEM_EFFECTIVE_ROTOR_COUNT>
9.2

> <PUBCHEM_PHARMACOPHORE_FEATURES>
6
1 1 acceptor
1 2 cation
1 24 hydrophobe
6 12 16 17 19 20 23 rings
6 15 21 22 25 26 27 rings
6 2 4 5 6 7 8 rings

> <PUBCHEM_HEAVY_ATOM_COUNT>
27

> <PUBCHEM_ATOM_DEF_STEREO_COUNT>
0

> <PUBCHEM_ATOM_UDEF_STEREO_COUNT>
2

> <PUBCHEM_BOND_DEF_STEREO_COUNT>
0

> <PUBCHEM_BOND_UDEF_STEREO_COUNT>
0

> <PUBCHEM_ISOTOPIC_ATOM_COUNT>
0

> <PUBCHEM_COMPONENT_COUNT>
1

> <PUBCHEM_CACTVS_TAUTO_COUNT>
1

> <PUBCHEM_CONFORMER_ID>
05223F6300000001

> <PUBCHEM_MMFF94_ENERGY>
79.4236

> <PUBCHEM_FEATURE_SELFOVERLAP>
30.447

> <PUBCHEM_SHAPE_FINGERPRINT>
10 15 18201434826967102498
10290309 65 17774730757601169582
10299344 5 17675924296939166874
10906281 52 12468897777149855821
11101153 10 18189342427475152756
11315181 36 17676489470794012879
11524674 6 18339642342835468858
11578080 2 17630343952099049739
11646440 116 17418378013100095464
12082328 90 18408040698531234006
12107698 1 18410575123407903872
12166972 35 16950564432305350916
12236239 1 17240480329607070510
12596602 18 17894627076387641296
12741549 16 17774729762122668747
13073987 5 18411417272627815394
13540713 4 17843700875801099591
13631057 29 18260264174830628539
14068700 675 18114466785699015919
14150022 121 17988656181509018089
14713325 29 18200599099040225313
14856354 85 18187087282076817158
15183329 4 17530962471940359506
1577012 14 17894916205339010300
15799311 1 17168429264610548946
15876981 60 18040721350628094173
17844677 252 18411983585466809192
17980427 23 17821741519570161813
18927931 339 18408325514417871207
21033648 144 18194678168563027237
21033648 29 17774989173056229400
21130935 74 18261105237450454898
21236236 1 18260548913634187865
21315759 40 17603302653309426706
21927370 108 18114476634264799753
23081809 10 17894353263927862288
23522609 53 17387156216562467548
23559900 14 17386568118884086533
24771293 8 12607103133989070362
249057 25 17821739346738976028
3009799 131 12252175299262477710
3663271 9 18186237312913092384
497634 4 17749102288102234550
5104073 3 18267869389201351234
54039377 194 16516256261967647891
5969126 39 18343294891030061893
9896288 288 18410859824358546123
9996256 80 17822006502484410794

> <PUBCHEM_SHAPE_MULTIPOLES>
539.82
19.98
2.87
1.68
39.81
3.53
-0.28
-5.33
5
-7.83
0.83
-0.31
-0.63
0.23

> <PUBCHEM_SHAPE_SELFOVERLAP>
1122.125

> <PUBCHEM_SHAPE_VOLUME>
304.5

> <PUBCHEM_COORDINATE_TYPE>
2
5
10

$$$$


101598717
  -OEChem-12311612323D

 56 58  0     1  0  0  0  0  0999 V2000
   -2.1890    2.6191   -0.5425 O   0  0  0  0  0  0  0  0  0  0  0  0
    1.5239    0.1048   -0.3380 N   0  0  1  0  0  0  0  0  0  0  0  0
   -2.6973    0.3528   -0.0670 N   0  0  0  0  0  0  0  0  0  0  0  0
   -1.3850   -0.2470   -0.1625 C   0  0  1  0  0  0  0  0  0  0  0  0
   -0.6844    0.0946   -1.4939 C   0  0  1  0  0  0  0  0  0  0  0  0
   -0.5264    0.2072    1.0226 C   0  0  0  0  0  0  0  0  0  0  0  0
    0.7715   -0.4127   -1.4886 C   0  0  0  0  0  0  0  0  0  0  0  0
    0.9041   -0.3162    0.9233 C   0  0  0  0  0  0  0  0  0  0  0  0
   -1.4215   -0.4970   -2.7009 C   0  0  0  0  0  0  0  0  0  0  0  0
    2.9168   -0.3391   -0.3957 C   0  0  0  0  0  0  0  0  0  0  0  0
    3.8294    0.6196    0.3697 C   0  0  0  0  0  0  0  0  0  0  0  0
   -3.8392   -0.5463    0.0860 C   0  0  0  0  0  0  0  0  0  0  0  0
   -2.9074    1.7640   -0.0187 C   0  0  0  0  0  0  0  0  0  0  0  0
   -4.1687    2.2018    0.7203 C   0  0  0  0  0  0  0  0  0  0  0  0
    5.2718    0.1854    0.2997 C   0  0  0  0  0  0  0  0  0  0  0  0
   -4.9002   -0.4860   -0.8175 C   0  0  0  0  0  0  0  0  0  0  0  0
   -3.8683   -1.4645    1.1355 C   0  0  0  0  0  0  0  0  0  0  0  0
   -4.0260    3.5694    1.3710 C   0  0  0  0  0  0  0  0  0  0  0  0
   -5.9905   -1.3438   -0.6714 C   0  0  0  0  0  0  0  0  0  0  0  0
   -4.9584   -2.3225    1.2816 C   0  0  0  0  0  0  0  0  0  0  0  0
    5.7898   -0.6731    1.2692 C   0  0  0  0  0  0  0  0  0  0  0  0
    6.0879    0.6424   -0.7349 C   0  0  0  0  0  0  0  0  0  0  0  0
   -6.0194   -2.2621    0.3782 C   0  0  0  0  0  0  0  0  0  0  0  0
    7.1242   -1.0746    1.2044 C   0  0  0  0  0  0  0  0  0  0  0  0
    7.4222    0.2412   -0.7999 C   0  0  0  0  0  0  0  0  0  0  0  0
    7.9403   -0.6174    0.1697 C   0  0  0  0  0  0  0  0  0  0  0  0
   -1.4787   -1.3407   -0.1113 H   0  0  0  0  0  0  0  0  0  0  0  0
   -0.6426    1.1804   -1.6366 H   0  0  0  0  0  0  0  0  0  0  0  0
   -0.9732   -0.1365    1.9636 H   0  0  0  0  0  0  0  0  0  0  0  0
   -0.4920    1.3026    1.0847 H   0  0  0  0  0  0  0  0  0  0  0  0
    0.7872   -1.5113   -1.4962 H   0  0  0  0  0  0  0  0  0  0  0  0
    1.2503   -0.0773   -2.4179 H   0  0  0  0  0  0  0  0  0  0  0  0
    1.4589    0.0775    1.7818 H   0  0  0  0  0  0  0  0  0  0  0  0
    0.9008   -1.4105    1.0159 H   0  0  0  0  0  0  0  0  0  0  0  0
   -1.5211   -1.5840   -2.6122 H   0  0  0  0  0  0  0  0  0  0  0  0
   -0.8820   -0.2817   -3.6295 H   0  0  0  0  0  0  0  0  0  0  0  0
   -2.4237   -0.0693   -2.7998 H   0  0  0  0  0  0  0  0  0  0  0  0
    3.0282   -1.3712   -0.0366 H   0  0  0  0  0  0  0  0  0  0  0  0
    3.2620   -0.3475   -1.4390 H   0  0  0  0  0  0  0  0  0  0  0  0
    3.5392    0.6940    1.4245 H   0  0  0  0  0  0  0  0  0  0  0  0
    3.7362    1.6361   -0.0354 H   0  0  0  0  0  0  0  0  0  0  0  0
   -4.4137    1.4911    1.5155 H   0  0  0  0  0  0  0  0  0  0  0  0
   -4.9980    2.2289    0.0059 H   0  0  0  0  0  0  0  0  0  0  0  0
   -4.8873    0.2183   -1.6452 H   0  0  0  0  0  0  0  0  0  0  0  0
   -3.0559   -1.5200    1.8547 H   0  0  0  0  0  0  0  0  0  0  0  0
   -3.8543    4.3474    0.6200 H   0  0  0  0  0  0  0  0  0  0  0  0
   -3.1812    3.5837    2.0675 H   0  0  0  0  0  0  0  0  0  0  0  0
   -4.9347    3.8258    1.9243 H   0  0  0  0  0  0  0  0  0  0  0  0
   -6.8158   -1.2981   -1.3759 H   0  0  0  0  0  0  0  0  0  0  0  0
   -4.9821   -3.0360    2.1000 H   0  0  0  0  0  0  0  0  0  0  0  0
    5.1632   -1.0376    2.0789 H   0  0  0  0  0  0  0  0  0  0  0  0
    5.6953    1.3101   -1.4972 H   0  0  0  0  0  0  0  0  0  0  0  0
   -6.8682   -2.9300    0.4920 H   0  0  0  0  0  0  0  0  0  0  0  0
    7.5275   -1.7435    1.9590 H   0  0  0  0  0  0  0  0  0  0  0  0
    8.0576    0.5967   -1.6058 H   0  0  0  0  0  0  0  0  0  0  0  0
    8.9791   -0.9301    0.1189 H   0  0  0  0  0  0  0  0  0  0  0  0
  1 13  2  0  0  0  0
  2  7  1  0  0  0  0
  2  8  1  0  0  0  0
  2 10  1  0  0  0  0
  3  4  1  0  0  0  0
  3 12  1  0  0  0  0
  3 13  1  0  0  0  0
  4  5  1  0  0  0  0
  4  6  1  0  0  0  0
  4 27  1  0  0  0  0
  5  7  1  0  0  0  0
  5  9  1  0  0  0  0
  5 28  1  0  0  0  0
  6  8  1  0  0  0  0
  6 29  1  0  0  0  0
  6 30  1  0  0  0  0
  7 31  1  0  0  0  0
  7 32  1  0  0  0  0
  8 33  1  0  0  0  0
  8 34  1  0  0  0  0
  9 35  1  0  0  0  0
  9 36  1  0  0  0  0
  9 37  1  0  0  0  0
 10 11  1  0  0  0  0
 10 38  1  0  0  0  0
 10 39  1  0  0  0  0
 11 15  1  0  0  0  0
 11 40  1  0  0  0  0
 11 41  1  0  0  0  0
 12 16  2  0  0  0  0
 12 17  1  0  0  0  0
 13 14  1  0  0  0  0
 14 18  1  0  0  0  0
 14 42  1  0  0  0  0
 14 43  1  0  0  0  0
 15 21  2  0  0  0  0
 15 22  1  0  0  0  0
 16 19  1  0  0  0  0
 16 44  1  0  0  0  0
 17 20  2  0  0  0  0
 17 45  1  0  0  0  0
 18 46  1  0  0  0  0
 18 47  1  0  0  0  0
 18 48  1  0  0  0  0
 19 23  2  0  0  0  0
 19 49  1  0  0  0  0
 20 23  1  0  0  0  0
 20 50  1  0  0  0  0
 21 24  1  0  0  0  0
 21 51  1  0  0  0  0
 22 25  2  0  0  0  0
 22 52  1  0  0  0  0
 23 53  1  0  0  0  0
 24 26  2  0  0  0  0
 24 54  1  0  0  0  0
 25 26  1  0  0  0  0
 25 55  1  0  0  0  0
 26 56  1  0  0  0  0
M  END
> <PUBCHEM_COMPOUND_CID>
101598717

> <PUBCHEM_CONFORMER_RMSD>
0.8

> <PUBCHEM_CONFORMER_DIVERSEORDER>
1
15
72
75
67
71
16
76
79
46
3
44
57
68
40
53
8
54
41
61
60
33
45
39
74
55
66
18
24
48
56
84
23
32
63
73
64
51
83
19
70
36
82
58
38
49
25
20
34
59
30
42
9
26
65
80
22
7
29
35
28
78
43
21
52
10
31
13
17
62
12
77
4
14
50
11
81
69
37
27
2
47
5
6

> <PUBCHEM_MMFF94_PARTIAL_CHARGES>
32
1 -0.57
10 0.27
11 0.14
12 0.12
13 0.57
14 0.06
15 -0.14
16 -0.15
17 -0.15
19 -0.15
2 -0.81
20 -0.15
21 -0.15
22 -0.15
23 -0.15
24 -0.15
25 -0.15
26 -0.15
3 -0.48
4 0.3
44 0.15
45 0.15
49 0.15
50 0.15
51 0.15
52 0.15
53 0.15
54 0.15
55 0.15
56 0.15
7 0.27
8 0.27

> <PUBCHEM_EFFECTIVE_ROTOR_COUNT>
8.2

> <PUBCHEM_PHARMACOPHORE_FEATURES>
6
1 1 acceptor
1 18 hydrophobe
1 2 cation
6 12 16 17 19 20 23 rings
6 15 21 22 24 25 26 rings
6 2 4 5 6 7 8 rings

> <PUBCHEM_HEAVY_ATOM_COUNT>
26

> <PUBCHEM_ATOM_DEF_STEREO_COUNT>
1

> <PUBCHEM_ATOM_UDEF_STEREO_COUNT>
1

> <PUBCHEM_BOND_DEF_STEREO_COUNT>
0

> <PUBCHEM_BOND_UDEF_STEREO_COUNT>
0

> <PUBCHEM_ISOTOPIC_ATOM_COUNT>
0

> <PUBCHEM_COMPONENT_COUNT>
1

> <PUBCHEM_CACTVS_TAUTO_COUNT>
4

> <PUBCHEM_CONFORMER_ID>
060E45FD00000001

> <PUBCHEM_MMFF94_ENERGY>
79.86

> <PUBCHEM_FEATURE_SELFOVERLAP>
30.447

> <PUBCHEM_SHAPE_FINGERPRINT>
10 15 17917425467316950514
10299344 5 18040998432617618586
10906281 52 13551734198789159005
11101153 10 18337114586861530164
11315181 36 18041000661019661001
11524674 6 18272088339703036830
11578080 2 17201940141431206201
11646440 116 16773799212583906674
12082328 90 18411700964113125470
12107698 1 18342457075158228376
12166972 35 17458626760830952636
12236239 1 17749105608180649390
12403259 118 18272373057332050260
12596602 18 18113615699206075120
12616971 3 17774714364248491852
13288520 33 18040433317520664599
13540713 4 17558570027423242965
13631057 29 18334855043753995331
13782708 43 18202564007801977130
14068700 675 18261957470277254295
14251764 18 18040154020688166680
14856354 85 18341333391454705559
15021287 119 17917425475253166660
15183329 4 17894347766322205666
1577012 14 18186806851351925368
15876981 60 18260835877727588885
17844677 252 18343585166041723936
17980427 23 18114756974774201541
18927931 339 18412546535319802375
19489759 90 18408322181121978553
21033648 29 17274244081254515328
21130935 74 18336542730184751858
21150785 3 17458345273654907686
21236236 1 18408605846748366033
21315759 40 17821445751707121818
23081809 10 18186243914209358088
23522609 53 17751387043997230236
23559900 14 17896035619270287857
23569943 247 17024293134226724906
249057 25 18113628897477338300
2838139 119 13038902227371742058
3009799 131 13406786748872253238
3633792 109 16950275230492661119
3663271 9 18334294250121777728
4325135 7 18187082871351112810
497634 4 17967808336390060500
5104073 3 18129669577761632634
54039377 194 17241054331313711715
563151 97 15719937039560354399
5969126 39 18201994448484562365
9896288 288 18342181029663550099
9996256 80 18186237312739044658

> <PUBCHEM_SHAPE_MULTIPOLES>
519.24
20.41
2.36
1.61
35.24
2
-0.64
-6.44
3.87
-6.05
1.09
-0.4
-0.24
-0.85

> <PUBCHEM_SHAPE_SELFOVERLAP>
1083.115

> <PUBCHEM_SHAPE_VOLUME>
291.8

> <PUBCHEM_COORDINATE_TYPE>
2
5
10

$$$$

86280430
  -OEChem-12311612333D

 56 58  0     0  0  0  0  0  0999 V2000
   -6.7561   -3.0210    0.4723 F   0  0  0  0  0  0  0  0  0  0  0  0
   -1.8245    2.5156   -1.1057 O   0  0  0  0  0  0  0  0  0  0  0  0
    1.8561    0.0008   -0.4730 N   0  0  0  0  0  0  0  0  0  0  0  0
   -2.3631    0.3361   -0.3497 N   0  0  0  0  0  0  0  0  0  0  0  0
   -1.0524   -0.2614   -0.2925 C   0  0  0  0  0  0  0  0  0  0  0  0
   -0.3277   -0.1138   -1.6301 C   0  0  0  0  0  0  0  0  0  0  0  0
   -0.2164    0.3517    0.8313 C   0  0  0  0  0  0  0  0  0  0  0  0
    1.2085   -0.2048    0.8300 C   0  0  0  0  0  0  0  0  0  0  0  0
    1.1013   -0.6538   -1.5504 C   0  0  0  0  0  0  0  0  0  0  0  0
    3.2338   -0.4900   -0.4425 C   0  0  0  0  0  0  0  0  0  0  0  0
    4.1701    0.5446    0.1827 C   0  0  0  0  0  0  0  0  0  0  0  0
   -3.5108   -0.5412   -0.1352 C   0  0  0  0  0  0  0  0  0  0  0  0
   -2.5727    1.7383   -0.5074 C   0  0  0  0  0  0  0  0  0  0  0  0
   -3.8707    2.2689    0.0971 C   0  0  0  0  0  0  0  0  0  0  0  0
    5.5980    0.0599    0.2002 C   0  0  0  0  0  0  0  0  0  0  0  0
   -3.5959   -1.3064    1.0278 C   0  0  0  0  0  0  0  0  0  0  0  0
   -4.5224   -0.6134   -1.0932 C   0  0  0  0  0  0  0  0  0  0  0  0
   -3.7533    3.7195    0.5669 C   0  0  0  0  0  0  0  0  0  0  0  0
    6.0778   -0.6578    1.2958 C   0  0  0  0  0  0  0  0  0  0  0  0
    6.4389    0.3295   -0.8794 C   0  0  0  0  0  0  0  0  0  0  0  0
   -4.6922   -2.1438    1.2331 C   0  0  0  0  0  0  0  0  0  0  0  0
   -5.6189   -1.4508   -0.8879 C   0  0  0  0  0  0  0  0  0  0  0  0
   -2.7017    3.8699    1.6543 C   0  0  0  0  0  0  0  0  0  0  0  0
   -5.7038   -2.2160    0.2754 C   0  0  0  0  0  0  0  0  0  0  0  0
    7.3987   -1.1059    1.3117 C   0  0  0  0  0  0  0  0  0  0  0  0
    7.7597   -0.1186   -0.8636 C   0  0  0  0  0  0  0  0  0  0  0  0
    8.2396   -0.8362    0.2321 C   0  0  0  0  0  0  0  0  0  0  0  0
   -1.1498   -1.3380   -0.0967 H   0  0  0  0  0  0  0  0  0  0  0  0
   -0.2763    0.9314   -1.9526 H   0  0  0  0  0  0  0  0  0  0  0  0
   -0.6859    0.1527    1.8023 H   0  0  0  0  0  0  0  0  0  0  0  0
   -0.1660    1.4435    0.7327 H   0  0  0  0  0  0  0  0  0  0  0  0
   -0.8782   -0.6494   -2.4136 H   0  0  0  0  0  0  0  0  0  0  0  0
    1.1820   -1.2713    1.0904 H   0  0  0  0  0  0  0  0  0  0  0  0
    1.7622    0.3070    1.6246 H   0  0  0  0  0  0  0  0  0  0  0  0
    1.5857   -0.4645   -2.5162 H   0  0  0  0  0  0  0  0  0  0  0  0
    1.0781   -1.7420   -1.4050 H   0  0  0  0  0  0  0  0  0  0  0  0
    3.5884   -0.6667   -1.4677 H   0  0  0  0  0  0  0  0  0  0  0  0
    3.3075   -1.4590    0.0694 H   0  0  0  0  0  0  0  0  0  0  0  0
    3.8720    0.7865    1.2098 H   0  0  0  0  0  0  0  0  0  0  0  0
    4.1146    1.4906   -0.3723 H   0  0  0  0  0  0  0  0  0  0  0  0
   -4.1780    1.6630    0.9553 H   0  0  0  0  0  0  0  0  0  0  0  0
   -4.6522    2.2067   -0.6679 H   0  0  0  0  0  0  0  0  0  0  0  0
   -2.8227   -1.2557    1.7895 H   0  0  0  0  0  0  0  0  0  0  0  0
   -4.4647   -0.0299   -2.0084 H   0  0  0  0  0  0  0  0  0  0  0  0
   -3.5026    4.3757   -0.2744 H   0  0  0  0  0  0  0  0  0  0  0  0
   -4.7240    4.0492    0.9547 H   0  0  0  0  0  0  0  0  0  0  0  0
    5.4315   -0.8759    2.1419 H   0  0  0  0  0  0  0  0  0  0  0  0
    6.0762    0.8861   -1.7395 H   0  0  0  0  0  0  0  0  0  0  0  0
   -4.7599   -2.7382    2.1395 H   0  0  0  0  0  0  0  0  0  0  0  0
   -6.4055   -1.5089   -1.6343 H   0  0  0  0  0  0  0  0  0  0  0  0
   -2.9144    3.2095    2.5012 H   0  0  0  0  0  0  0  0  0  0  0  0
   -2.6945    4.8998    2.0259 H   0  0  0  0  0  0  0  0  0  0  0  0
   -1.6955    3.6460    1.2888 H   0  0  0  0  0  0  0  0  0  0  0  0
    7.7723   -1.6652    2.1645 H   0  0  0  0  0  0  0  0  0  0  0  0
    8.4145    0.0908   -1.7044 H   0  0  0  0  0  0  0  0  0  0  0  0
    9.2680   -1.1853    0.2443 H   0  0  0  0  0  0  0  0  0  0  0  0
  1 24  1  0  0  0  0
  2 13  2  0  0  0  0
  3  8  1  0  0  0  0
  3  9  1  0  0  0  0
  3 10  1  0  0  0  0
  4  5  1  0  0  0  0
  4 12  1  0  0  0  0
  4 13  1  0  0  0  0
  5  6  1  0  0  0  0
  5  7  1  0  0  0  0
  5 28  1  0  0  0  0
  6  9  1  0  0  0  0
  6 29  1  0  0  0  0
  6 32  1  0  0  0  0
  7  8  1  0  0  0  0
  7 30  1  0  0  0  0
  7 31  1  0  0  0  0
  8 33  1  0  0  0  0
  8 34  1  0  0  0  0
  9 35  1  0  0  0  0
  9 36  1  0  0  0  0
 10 11  1  0  0  0  0
 10 37  1  0  0  0  0
 10 38  1  0  0  0  0
 11 15  1  0  0  0  0
 11 39  1  0  0  0  0
 11 40  1  0  0  0  0
 12 16  2  0  0  0  0
 12 17  1  0  0  0  0
 13 14  1  0  0  0  0
 14 18  1  0  0  0  0
 14 41  1  0  0  0  0
 14 42  1  0  0  0  0
 15 19  2  0  0  0  0
 15 20  1  0  0  0  0
 16 21  1  0  0  0  0
 16 43  1  0  0  0  0
 17 22  2  0  0  0  0
 17 44  1  0  0  0  0
 18 23  1  0  0  0  0
 18 45  1  0  0  0  0
 18 46  1  0  0  0  0
 19 25  1  0  0  0  0
 19 47  1  0  0  0  0
 20 26  2  0  0  0  0
 20 48  1  0  0  0  0
 21 24  2  0  0  0  0
 21 49  1  0  0  0  0
 22 24  1  0  0  0  0
 22 50  1  0  0  0  0
 23 51  1  0  0  0  0
 23 52  1  0  0  0  0
 23 53  1  0  0  0  0
 25 27  2  0  0  0  0
 25 54  1  0  0  0  0
 26 27  1  0  0  0  0
 26 55  1  0  0  0  0
 27 56  1  0  0  0  0
M  END
> <PUBCHEM_COMPOUND_CID>
86280430

> <PUBCHEM_CONFORMER_RMSD>
1

> <PUBCHEM_CONFORMER_DIVERSEORDER>
1
51
46
59
42
20
47
64
62
14
49
44
22
31
35
19
40
38
52
36
39
50
6
10
54
34
12
33
55
9
27
23
53
58
26
61
60
45
32
37
17
48
57
4
28
41
2
13
24
30
63
8
21
43
25
29
5
18
11
16
7
15
56
3

> <PUBCHEM_MMFF94_PARTIAL_CHARGES>
32
1 -0.19
10 0.27
11 0.14
12 0.12
13 0.57
14 0.06
15 -0.14
16 -0.15
17 -0.15
19 -0.15
2 -0.57
20 -0.15
21 -0.15
22 -0.15
24 0.19
25 -0.15
26 -0.15
27 -0.15
3 -0.81
4 -0.48
43 0.15
44 0.15
47 0.15
48 0.15
49 0.15
5 0.3
50 0.15
54 0.15
55 0.15
56 0.15
8 0.27
9 0.27

> <PUBCHEM_EFFECTIVE_ROTOR_COUNT>
9.2

> <PUBCHEM_PHARMACOPHORE_FEATURES>
6
1 2 acceptor
1 23 hydrophobe
1 3 cation
6 12 16 17 21 22 24 rings
6 15 19 20 25 26 27 rings
6 3 5 6 7 8 9 rings

> <PUBCHEM_HEAVY_ATOM_COUNT>
27

> <PUBCHEM_ATOM_DEF_STEREO_COUNT>
0

> <PUBCHEM_ATOM_UDEF_STEREO_COUNT>
0

> <PUBCHEM_BOND_DEF_STEREO_COUNT>
0

> <PUBCHEM_BOND_UDEF_STEREO_COUNT>
0

> <PUBCHEM_ISOTOPIC_ATOM_COUNT>
0

> <PUBCHEM_COMPONENT_COUNT>
1

> <PUBCHEM_CACTVS_TAUTO_COUNT>
4

> <PUBCHEM_CONFORMER_ID>
052488EE00000001

> <PUBCHEM_MMFF94_ENERGY>
75.7089

> <PUBCHEM_FEATURE_SELFOVERLAP>
30.447

> <PUBCHEM_SHAPE_FINGERPRINT>
10290309 65 17632303311331416646
10299344 5 17894911815972130426
10319688 45 18200025287146330023
10411042 1 18267022937832151491
10906281 52 12468899967398644941
11007060 377 16805608088101927032
11101153 10 18335708307431962524
11315181 36 17967534583732879991
11524674 6 18060137682345382214
11646440 116 17060338539957665306
12082328 90 18411699860322393814
12107698 1 18412262865393406776
12166972 35 17313103098370289956
12236239 1 17531242872495056246
12741549 16 17489310828544738771
13540713 4 17630624322409426855
13631057 29 18334573555697067411
13673619 4 18130505326862776881
13782708 43 18272087214842883606
14068700 675 18261957461481500591
14150022 121 17845947264404586377
14856354 85 18272089447693290599
15183329 4 17748824099635374562
15419008 47 17774997994787433912
1577012 14 18040720234743204844
15876981 60 18187932750410027436
17844677 252 18342176683214857136
17980427 23 18040727943354959532
18681886 176 17459184234632258690
18927931 339 18410856577231414671
19489759 90 18334856104262445596
21033648 29 17560221558450166048
21130935 74 18336821989032223178
21236236 1 18335421244448864281
21315759 40 17822008697365595366
21792961 116 17632016343365053910
21927370 108 18187659024350247153
22224240 67 16271931540495400615
23081809 10 18040720243280209900
23522609 53 17751385931732549924
23559900 14 17677612136580088181
23569943 247 17170378630096985522
24771293 8 12031203124052329578
249057 25 17967824851156888924
3009799 131 12829482667087544846
3418910 222 18338524148585238900
3633792 109 16515678970263414590
3663271 9 18261109648191443768
4073 2 18339084770364951910
497634 4 18040991826024104604
5104073 3 18199190590142815986
54039377 194 17313672663323037251
563151 97 15286183000758329327
5969126 39 18272081717521888085
9896288 288 18340491075880652955
9996256 80 18040995121055278558

> <PUBCHEM_SHAPE_MULTIPOLES>
532.54
21.38
3.12
1.41
39.65
3.25
0
-10.48
2.91
-9.02
1.31
0.14
0.01
-0.48

> <PUBCHEM_SHAPE_SELFOVERLAP>
1112.477

> <PUBCHEM_SHAPE_VOLUME>
300.8

> <PUBCHEM_COORDINATE_TYPE>
2
5
10

$$$$

62300
  -OEChem-12311612373D

 53 55  0     0  0  0  0  0  0999 V2000
   -4.4400   -4.2016   -0.2070 F   0  0  0  0  0  0  0  0  0  0  0  0
   -3.3767    3.2820   -0.0244 O   0  0  0  0  0  0  0  0  0  0  0  0
    1.4744    0.2287    0.4811 N   0  0  0  0  0  0  0  0  0  0  0  0
   -2.6605    1.0230    0.0330 N   0  0  0  0  0  0  0  0  0  0  0  0
   -1.2473    1.2619    0.1886 C   0  0  0  0  0  0  0  0  0  0  0  0
   -0.4594    0.6907   -0.9907 C   0  0  0  0  0  0  0  0  0  0  0  0
   -0.7361    0.6691    1.5013 C   0  0  0  0  0  0  0  0  0  0  0  0
    1.0474    0.8496   -0.7805 C   0  0  0  0  0  0  0  0  0  0  0  0
    0.7799    0.8273    1.6294 C   0  0  0  0  0  0  0  0  0  0  0  0
    2.9237    0.3439    0.6431 C   0  0  0  0  0  0  0  0  0  0  0  0
    3.6603   -0.3903   -0.4779 C   0  0  0  0  0  0  0  0  0  0  0  0
   -3.1305   -0.3591   -0.0304 C   0  0  0  0  0  0  0  0  0  0  0  0
   -3.6220    2.0735   -0.0619 C   0  0  0  0  0  0  0  0  0  0  0  0
    5.1560   -0.2983   -0.3103 C   0  0  0  0  0  0  0  0  0  0  0  0
   -5.0719    1.6111   -0.1748 C   0  0  0  0  0  0  0  0  0  0  0  0
   -3.4650   -0.9667    1.1430 C   0  0  0  0  0  0  0  0  0  0  0  0
   -3.2032   -0.9454   -1.2586 C   0  0  0  0  0  0  0  0  0  0  0  0
   -6.0527    2.7682   -0.2880 C   0  0  0  0  0  0  0  0  0  0  0  0
    5.8426    0.7575   -0.8910 C   0  0  0  0  0  0  0  0  0  0  0  0
    5.8204   -1.2705    0.4221 C   0  0  0  0  0  0  0  0  0  0  0  0
   -3.9148   -2.2857    1.0825 C   0  0  0  0  0  0  0  0  0  0  0  0
   -3.6530   -2.2643   -1.3193 C   0  0  0  0  0  0  0  0  0  0  0  0
   -4.0087   -2.9346   -0.1488 C   0  0  0  0  0  0  0  0  0  0  0  0
    7.2262    0.8429   -0.7359 C   0  0  0  0  0  0  0  0  0  0  0  0
    7.2040   -1.1849    0.5772 C   0  0  0  0  0  0  0  0  0  0  0  0
    7.9068   -0.1282   -0.0016 C   0  0  0  0  0  0  0  0  0  0  0  0
   -1.0809    2.3464    0.2163 H   0  0  0  0  0  0  0  0  0  0  0  0
   -0.6514   -0.3796   -1.1257 H   0  0  0  0  0  0  0  0  0  0  0  0
   -0.7584    1.1881   -1.9215 H   0  0  0  0  0  0  0  0  0  0  0  0
   -1.2313    1.1503    2.3535 H   0  0  0  0  0  0  0  0  0  0  0  0
   -0.9495   -0.4032    1.5728 H   0  0  0  0  0  0  0  0  0  0  0  0
    1.3149    1.9141   -0.8067 H   0  0  0  0  0  0  0  0  0  0  0  0
    1.5061    0.3726   -1.6502 H   0  0  0  0  0  0  0  0  0  0  0  0
    1.0970    0.3325    2.5557 H   0  0  0  0  0  0  0  0  0  0  0  0
    1.0313    1.8918    1.7271 H   0  0  0  0  0  0  0  0  0  0  0  0
    3.2334    1.3975    0.6762 H   0  0  0  0  0  0  0  0  0  0  0  0
    3.2185   -0.1008    1.6028 H   0  0  0  0  0  0  0  0  0  0  0  0
    3.3578   -1.4456   -0.5069 H   0  0  0  0  0  0  0  0  0  0  0  0
    3.4359    0.0139   -1.4700 H   0  0  0  0  0  0  0  0  0  0  0  0
   -5.1890    0.9870   -1.0659 H   0  0  0  0  0  0  0  0  0  0  0  0
   -5.3383    1.0296    0.7131 H   0  0  0  0  0  0  0  0  0  0  0  0
   -3.4055   -0.4616    2.1013 H   0  0  0  0  0  0  0  0  0  0  0  0
   -2.9399   -0.4235   -2.1725 H   0  0  0  0  0  0  0  0  0  0  0  0
   -5.9992    3.4174    0.5922 H   0  0  0  0  0  0  0  0  0  0  0  0
   -5.8397    3.3797   -1.1711 H   0  0  0  0  0  0  0  0  0  0  0  0
   -7.0770    2.3920   -0.3723 H   0  0  0  0  0  0  0  0  0  0  0  0
    5.3218    1.5207   -1.4623 H   0  0  0  0  0  0  0  0  0  0  0  0
    5.2817   -2.0961    0.8784 H   0  0  0  0  0  0  0  0  0  0  0  0
   -4.1944   -2.8067    1.9933 H   0  0  0  0  0  0  0  0  0  0  0  0
   -3.7289   -2.7688   -2.2780 H   0  0  0  0  0  0  0  0  0  0  0  0
    7.7734    1.6662   -1.1859 H   0  0  0  0  0  0  0  0  0  0  0  0
    7.7342   -1.9407    1.1494 H   0  0  0  0  0  0  0  0  0  0  0  0
    8.9840   -0.0614    0.1196 H   0  0  0  0  0  0  0  0  0  0  0  0
  1 23  1  0  0  0  0
  2 13  2  0  0  0  0
  3  8  1  0  0  0  0
  3  9  1  0  0  0  0
  3 10  1  0  0  0  0
  4  5  1  0  0  0  0
  4 12  1  0  0  0  0
  4 13  1  0  0  0  0
  5  6  1  0  0  0  0
  5  7  1  0  0  0  0
  5 27  1  0  0  0  0
  6  8  1  0  0  0  0
  6 28  1  0  0  0  0
  6 29  1  0  0  0  0
  7  9  1  0  0  0  0
  7 30  1  0  0  0  0
  7 31  1  0  0  0  0
  8 32  1  0  0  0  0
  8 33  1  0  0  0  0
  9 34  1  0  0  0  0
  9 35  1  0  0  0  0
 10 11  1  0  0  0  0
 10 36  1  0  0  0  0
 10 37  1  0  0  0  0
 11 14  1  0  0  0  0
 11 38  1  0  0  0  0
 11 39  1  0  0  0  0
 12 16  2  0  0  0  0
 12 17  1  0  0  0  0
 13 15  1  0  0  0  0
 14 19  2  0  0  0  0
 14 20  1  0  0  0  0
 15 18  1  0  0  0  0
 15 40  1  0  0  0  0
 15 41  1  0  0  0  0
 16 21  1  0  0  0  0
 16 42  1  0  0  0  0
 17 22  2  0  0  0  0
 17 43  1  0  0  0  0
 18 44  1  0  0  0  0
 18 45  1  0  0  0  0
 18 46  1  0  0  0  0
 19 24  1  0  0  0  0
 19 47  1  0  0  0  0
 20 25  2  0  0  0  0
 20 48  1  0  0  0  0
 21 23  2  0  0  0  0
 21 49  1  0  0  0  0
 22 23  1  0  0  0  0
 22 50  1  0  0  0  0
 24 26  2  0  0  0  0
 24 51  1  0  0  0  0
 25 26  1  0  0  0  0
 25 52  1  0  0  0  0
 26 53  1  0  0  0  0
M  END
> <PUBCHEM_COMPOUND_CID>
62300

> <PUBCHEM_CONFORMER_RMSD>
1

> <PUBCHEM_CONFORMER_DIVERSEORDER>
1
8
27
19
33
14
21
4
39
15
3
29
34
36
22
35
30
23
6
11
17
38
2
16
20
31
5
10
26
32
24
28
37
25
12
18
7
9
13

> <PUBCHEM_MMFF94_PARTIAL_CHARGES>
32
1 -0.19
10 0.27
11 0.14
12 0.12
13 0.57
14 -0.14
15 0.06
16 -0.15
17 -0.15
19 -0.15
2 -0.57
20 -0.15
21 -0.15
22 -0.15
23 0.19
24 -0.15
25 -0.15
26 -0.15
3 -0.81
4 -0.48
42 0.15
43 0.15
47 0.15
48 0.15
49 0.15
5 0.3
50 0.15
51 0.15
52 0.15
53 0.15
8 0.27
9 0.27

> <PUBCHEM_EFFECTIVE_ROTOR_COUNT>
8.2

> <PUBCHEM_PHARMACOPHORE_FEATURES>
6
1 18 hydrophobe
1 2 acceptor
1 3 cation
6 12 16 17 21 22 23 rings
6 14 19 20 24 25 26 rings
6 3 5 6 7 8 9 rings

> <PUBCHEM_HEAVY_ATOM_COUNT>
26

> <PUBCHEM_ATOM_DEF_STEREO_COUNT>
0

> <PUBCHEM_ATOM_UDEF_STEREO_COUNT>
0

> <PUBCHEM_BOND_DEF_STEREO_COUNT>
0

> <PUBCHEM_BOND_UDEF_STEREO_COUNT>
0

> <PUBCHEM_ISOTOPIC_ATOM_COUNT>
0

> <PUBCHEM_COMPONENT_COUNT>
1

> <PUBCHEM_CACTVS_TAUTO_COUNT>
1

> <PUBCHEM_CONFORMER_ID>
0000F35C00000001

> <PUBCHEM_MMFF94_ENERGY>
82.4133

> <PUBCHEM_FEATURE_SELFOVERLAP>
30.447

> <PUBCHEM_SHAPE_FINGERPRINT>
10411042 1 18122626321993356295
10595046 47 18334016121024895052
10675989 125 17119457900718775105
11135609 201 10810435128824109895
11315181 36 18260828223810192532
11524674 6 17346595266313782871
11545043 162 18130783482140893504
11796584 16 18341332206597313954
11809386 21 18408600383407995491
12616971 3 16805335387574376564
13540713 4 17915439787682347169
13631057 29 18412543249253362178
13690498 29 18410289259259199719
13782708 43 18343301513801378738
14251751 18 18342741853528862954
14844126 61 18411420635502792811
14856354 85 18412829083505483492
15131766 46 14493336277139187503
15183329 4 14562525194238397938
15250474 111 18188194421788271794
1577012 14 18113059338217717780
15849732 13 17749112141538362389
15876981 60 18260271853905658876
17093844 174 18201432580176895920
17844677 252 18343022229041847456
18927931 339 18342741844485475463
20505436 4 17750229215229207865
20721686 146 16952524682014804029
21054139 6 18187643635551341634
21236236 1 18335140899270170018
220451 1 18040999501948183802
2303208 19 17489314083934853974
23081809 10 17822296790997705108
23402539 116 17967254183078443276
23516275 137 18045800991643939434
23559900 14 18343292678347042144
24771293 8 17749954475210097524
249057 3 18409167688643053077
3610482 184 17822874016800049916
397830 11 17988351694091838096
4015057 19 17241339095971366588
4073 2 18114188536379862522
4403749 210 18129931373841485286
44062 13 18413387639944620385
44802255 64 17968371231279138141
484985 159 18337383929309737655
5265222 85 18341612641642974978
559249 180 18408321064899882461
58260988 114 16661229026147061241
59755656 520 16225772895372760417
6431902 208 18336266842238104946
7495541 125 18343580772759450968
7970288 3 18050004695058701939

> <PUBCHEM_SHAPE_MULTIPOLES>
511.96
19.38
3.18
1.22
37.11
1.74
-0.16
1.25
2.07
-8.53
0.28
-0.29
0.17
-0.61

> <PUBCHEM_SHAPE_SELFOVERLAP>
1078.948

> <PUBCHEM_SHAPE_VOLUME>
287.9

> <PUBCHEM_COORDINATE_TYPE>
2
5
10

$$$$

527015
  -OEChem-12311612383D

 50 52  0     0  0  0  0  0  0999 V2000
   -3.9148   -3.1374    0.1207 O   0  0  0  0  0  0  0  0  0  0  0  0
    1.0358   -0.4651   -0.4370 N   0  0  0  0  0  0  0  0  0  0  0  0
   -3.1313   -0.8953    0.1784 N   0  0  0  0  0  0  0  0  0  0  0  0
   -1.7185   -1.1733    0.2503 C   0  0  0  0  0  0  0  0  0  0  0  0
   -1.1386   -1.4104   -1.1438 C   0  0  0  0  0  0  0  0  0  0  0  0
   -0.9689   -0.0377    0.9477 C   0  0  0  0  0  0  0  0  0  0  0  0
    0.3776   -1.6056   -1.0890 C   0  0  0  0  0  0  0  0  0  0  0  0
    0.5415   -0.2793    0.9343 C   0  0  0  0  0  0  0  0  0  0  0  0
    2.4877   -0.6438   -0.4376 C   0  0  0  0  0  0  0  0  0  0  0  0
    3.1922    0.5943    0.1182 C   0  0  0  0  0  0  0  0  0  0  0  0
   -3.5394    0.5034    0.0693 C   0  0  0  0  0  0  0  0  0  0  0  0
   -4.1169   -1.9205    0.1191 C   0  0  0  0  0  0  0  0  0  0  0  0
    4.6913    0.4320    0.1023 C   0  0  0  0  0  0  0  0  0  0  0  0
   -3.8457    1.1635    1.2219 C   0  0  0  0  0  0  0  0  0  0  0  0
   -3.5861    1.0523   -1.1776 C   0  0  0  0  0  0  0  0  0  0  0  0
   -5.5507   -1.4426    0.0964 C   0  0  0  0  0  0  0  0  0  0  0  0
    5.3287   -0.1166    1.2050 C   0  0  0  0  0  0  0  0  0  0  0  0
    5.4082    0.8341   -1.0146 C   0  0  0  0  0  0  0  0  0  0  0  0
   -4.2354    2.4987    1.1178 C   0  0  0  0  0  0  0  0  0  0  0  0
   -3.9756    2.3876   -1.2816 C   0  0  0  0  0  0  0  0  0  0  0  0
   -4.3003    3.1108   -0.1340 C   0  0  0  0  0  0  0  0  0  0  0  0
    6.7155   -0.2666    1.1903 C   0  0  0  0  0  0  0  0  0  0  0  0
    6.7949    0.6839   -1.0295 C   0  0  0  0  0  0  0  0  0  0  0  0
    7.4485    0.1335    0.0730 C   0  0  0  0  0  0  0  0  0  0  0  0
   -1.5916   -2.0946    0.8343 H   0  0  0  0  0  0  0  0  0  0  0  0
   -1.3528   -0.5659   -1.8086 H   0  0  0  0  0  0  0  0  0  0  0  0
   -1.6042   -2.2907   -1.6034 H   0  0  0  0  0  0  0  0  0  0  0  0
   -1.3021    0.0582    1.9884 H   0  0  0  0  0  0  0  0  0  0  0  0
   -1.1285    0.9314    0.4596 H   0  0  0  0  0  0  0  0  0  0  0  0
    0.6089   -2.5426   -0.5652 H   0  0  0  0  0  0  0  0  0  0  0  0
    0.7444   -1.7091   -2.1176 H   0  0  0  0  0  0  0  0  0  0  0  0
    0.9741    0.6031    1.4124 H   0  0  0  0  0  0  0  0  0  0  0  0
    0.7833   -1.1477    1.5612 H   0  0  0  0  0  0  0  0  0  0  0  0
    2.8332   -0.8082   -1.4669 H   0  0  0  0  0  0  0  0  0  0  0  0
    2.7747   -1.5354    0.1366 H   0  0  0  0  0  0  0  0  0  0  0  0
    2.9128    1.4851   -0.4602 H   0  0  0  0  0  0  0  0  0  0  0  0
    2.9167    0.8107    1.1551 H   0  0  0  0  0  0  0  0  0  0  0  0
   -3.7999    0.6874    2.1957 H   0  0  0  0  0  0  0  0  0  0  0  0
   -3.3541    0.4910   -2.0755 H   0  0  0  0  0  0  0  0  0  0  0  0
   -6.2167   -2.3109    0.0512 H   0  0  0  0  0  0  0  0  0  0  0  0
   -5.7896   -0.8901    1.0082 H   0  0  0  0  0  0  0  0  0  0  0  0
   -5.7471   -0.8333   -0.7889 H   0  0  0  0  0  0  0  0  0  0  0  0
    4.7671   -0.4341    2.0790 H   0  0  0  0  0  0  0  0  0  0  0  0
    4.9080    1.2621   -1.8787 H   0  0  0  0  0  0  0  0  0  0  0  0
   -4.4896    3.0613    2.0112 H   0  0  0  0  0  0  0  0  0  0  0  0
   -4.0307    2.8628   -2.2567 H   0  0  0  0  0  0  0  0  0  0  0  0
   -4.6050    4.1502   -0.2151 H   0  0  0  0  0  0  0  0  0  0  0  0
    7.2245   -0.6957    2.0484 H   0  0  0  0  0  0  0  0  0  0  0  0
    7.3656    0.9951   -1.8995 H   0  0  0  0  0  0  0  0  0  0  0  0
    8.5282    0.0163    0.0614 H   0  0  0  0  0  0  0  0  0  0  0  0
  1 12  2  0  0  0  0
  2  7  1  0  0  0  0
  2  8  1  0  0  0  0
  2  9  1  0  0  0  0
  3  4  1  0  0  0  0
  3 11  1  0  0  0  0
  3 12  1  0  0  0  0
  4  5  1  0  0  0  0
  4  6  1  0  0  0  0
  4 25  1  0  0  0  0
  5  7  1  0  0  0  0
  5 26  1  0  0  0  0
  5 27  1  0  0  0  0
  6  8  1  0  0  0  0
  6 28  1  0  0  0  0
  6 29  1  0  0  0  0
  7 30  1  0  0  0  0
  7 31  1  0  0  0  0
  8 32  1  0  0  0  0
  8 33  1  0  0  0  0
  9 10  1  0  0  0  0
  9 34  1  0  0  0  0
  9 35  1  0  0  0  0
 10 13  1  0  0  0  0
 10 36  1  0  0  0  0
 10 37  1  0  0  0  0
 11 14  2  0  0  0  0
 11 15  1  0  0  0  0
 12 16  1  0  0  0  0
 13 17  2  0  0  0  0
 13 18  1  0  0  0  0
 14 19  1  0  0  0  0
 14 38  1  0  0  0  0
 15 20  2  0  0  0  0
 15 39  1  0  0  0  0
 16 40  1  0  0  0  0
 16 41  1  0  0  0  0
 16 42  1  0  0  0  0
 17 22  1  0  0  0  0
 17 43  1  0  0  0  0
 18 23  2  0  0  0  0
 18 44  1  0  0  0  0
 19 21  2  0  0  0  0
 19 45  1  0  0  0  0
 20 21  1  0  0  0  0
 20 46  1  0  0  0  0
 21 47  1  0  0  0  0
 22 24  2  0  0  0  0
 22 48  1  0  0  0  0
 23 24  1  0  0  0  0
 23 49  1  0  0  0  0
 24 50  1  0  0  0  0
M  END
> <PUBCHEM_COMPOUND_CID>
527015

> <PUBCHEM_CONFORMER_RMSD>
0.8

> <PUBCHEM_CONFORMER_DIVERSEORDER>
1
37
62
51
34
56
41
7
44
64
10
65
48
63
58
14
28
5
19
20
50
55
46
38
6
13
47
53
15
27
67
59
4
42
66
33
49
40
12
31
60
61
32
18
45
8
26
57
25
30
24
29
52
39
22
23
16
21
36
43
2
9
17
35
54
3
11

> <PUBCHEM_MMFF94_PARTIAL_CHARGES>
32
1 -0.57
10 0.14
11 0.12
12 0.57
13 -0.14
14 -0.15
15 -0.15
16 0.06
17 -0.15
18 -0.15
19 -0.15
2 -0.81
20 -0.15
21 -0.15
22 -0.15
23 -0.15
24 -0.15
3 -0.48
38 0.15
39 0.15
4 0.3
43 0.15
44 0.15
45 0.15
46 0.15
47 0.15
48 0.15
49 0.15
50 0.15
7 0.27
8 0.27
9 0.27

> <PUBCHEM_EFFECTIVE_ROTOR_COUNT>
7.2

> <PUBCHEM_PHARMACOPHORE_FEATURES>
5
1 1 acceptor
1 2 cation
6 11 14 15 19 20 21 rings
6 13 17 18 22 23 24 rings
6 2 4 5 6 7 8 rings

> <PUBCHEM_HEAVY_ATOM_COUNT>
24

> <PUBCHEM_ATOM_DEF_STEREO_COUNT>
0

> <PUBCHEM_ATOM_UDEF_STEREO_COUNT>
0

> <PUBCHEM_BOND_DEF_STEREO_COUNT>
0

> <PUBCHEM_BOND_UDEF_STEREO_COUNT>
0

> <PUBCHEM_ISOTOPIC_ATOM_COUNT>
0

> <PUBCHEM_COMPONENT_COUNT>
1

> <PUBCHEM_CACTVS_TAUTO_COUNT>
1

> <PUBCHEM_CONFORMER_ID>
00080AA700000001

> <PUBCHEM_MMFF94_ENERGY>
83.2226

> <PUBCHEM_FEATURE_SELFOVERLAP>
25.373

> <PUBCHEM_SHAPE_FINGERPRINT>
10 15 18187655678159390337
10076449 9 17704063028803261591
10291535 26 18131355168110971393
10319688 45 18125719243395971055
10411042 1 18050850224401928043
105312 117 18060417997621815878
10595046 47 18187364376471417122
10638233 991 17676778673171471668
10675989 125 16312153539634500285
10912923 1 17894627076424415314
11101153 10 18118407473479447733
11315181 36 17967816088779720742
11545043 162 18272929462092331968
12107183 9 17900530182265440730
12166972 35 18335706100050640184
12403259 415 17917989507843983696
12422481 6 17968093067569394436
12596602 18 16153717513586198872
13631057 29 18337951302889556547
14251764 18 18040999557534903796
14466204 15 18410008823807097024
14713325 29 18342182172114132419
14856354 85 18335989782287256199
15021287 119 17095523998367398084
15183329 4 18040714771349404424
1577012 14 18186523198942716764
15778101 99 18340210704409889377
15876981 60 18114185271677353213
17780758 139 13623534524122715101
17844677 252 18337956804694748104
17980427 23 17821738238130641301
19489759 90 18408603686132032634
20281389 69 18407477765372949520
21033648 144 18269273457002031445
21033648 29 17703779332479223832
21236236 1 18408603669157696805
21279426 13 18059585624913566566
21315764 268 18270955872911965728
21859007 373 18058997407905264120
22956985 138 17110166469761826507
23081809 10 17749107803689399608
23198884 109 17894912962047708898
23522609 53 17677069975123188892
23569914 152 15619493160571255284
23569943 247 16155091826232904474
24771293 8 12391502097890120442
249057 25 17895199947483252540
2838139 119 18341604885286141844
497634 4 17894623794616090887
5104073 3 18337678498929499491
5969126 39 18272080661171222303
6327066 14 18116707414440467005
7226269 152 18336827503058217400
7808743 9 18336263423602185073

> <PUBCHEM_SHAPE_MULTIPOLES>
478.08
18.16
2.59
1.27
31.18
0.45
-0.02
4.48
0.98
-6.46
-0.24
0.25
0.29
-0.29

> <PUBCHEM_SHAPE_SELFOVERLAP>
1009.755

> <PUBCHEM_SHAPE_VOLUME>
265.5

> <PUBCHEM_COORDINATE_TYPE>
2
5
10

$$$$

10314851
  -OEChem-12311612393D

 51 53  0     0  0  0  0  0  0999 V2000
   -3.7340   -2.9279    0.0122 O   0  0  0  0  0  0  0  0  0  0  0  0
    1.2900   -0.4060   -0.4597 N   0  0  0  0  0  0  0  0  0  0  0  0
   -2.8936   -0.7120    0.1173 N   0  0  0  0  0  0  0  0  0  0  0  0
   -1.4915   -1.0394    0.1904 C   0  0  0  0  0  0  0  0  0  0  0  0
   -0.9098   -1.2576   -1.2061 C   0  0  0  0  0  0  0  0  0  0  0  0
   -0.7092    0.0507    0.9237 C   0  0  0  0  0  0  0  0  0  0  0  0
    0.5986   -1.5053   -1.1471 C   0  0  0  0  0  0  0  0  0  0  0  0
    0.7923   -0.2413    0.9130 C   0  0  0  0  0  0  0  0  0  0  0  0
    2.7350   -0.6335   -0.4561 C   0  0  0  0  0  0  0  0  0  0  0  0
    3.4767    0.5645    0.1382 C   0  0  0  0  0  0  0  0  0  0  0  0
   -3.2672    0.7032    0.0437 C   0  0  0  0  0  0  0  0  0  0  0  0
   -3.9070   -1.7090    0.0331 C   0  0  0  0  0  0  0  0  0  0  0  0
    4.9695    0.3521    0.1273 C   0  0  0  0  0  0  0  0  0  0  0  0
   -3.5550    1.3372    1.2132 C   0  0  0  0  0  0  0  0  0  0  0  0
   -3.2986    1.2805   -1.1885 C   0  0  0  0  0  0  0  0  0  0  0  0
   -5.3000   -1.1781   -0.0373 C   0  0  0  0  0  0  0  0  0  0  0  0
    5.5799   -0.2485    1.2181 C   0  0  0  0  0  0  0  0  0  0  0  0
    5.7076    0.7603   -0.9736 C   0  0  0  0  0  0  0  0  0  0  0  0
   -3.9102    2.6844    1.1436 C   0  0  0  0  0  0  0  0  0  0  0  0
   -3.6538    2.6277   -1.2581 C   0  0  0  0  0  0  0  0  0  0  0  0
   -3.9596    3.3295   -0.0920 C   0  0  0  0  0  0  0  0  0  0  0  0
    6.9608   -0.4453    1.2081 C   0  0  0  0  0  0  0  0  0  0  0  0
    7.0885    0.5634   -0.9835 C   0  0  0  0  0  0  0  0  0  0  0  0
    7.7150   -0.0395    0.1073 C   0  0  0  0  0  0  0  0  0  0  0  0
   -6.3241   -1.9099    0.4127 C   0  0  0  0  0  0  0  0  0  0  0  0
   -1.3986   -1.9797    0.7498 H   0  0  0  0  0  0  0  0  0  0  0  0
   -1.4013   -2.1088   -1.6928 H   0  0  0  0  0  0  0  0  0  0  0  0
   -1.0920   -0.3880   -1.8478 H   0  0  0  0  0  0  0  0  0  0  0  0
   -0.8351    1.0372    0.4610 H   0  0  0  0  0  0  0  0  0  0  0  0
   -1.0470    0.1295    1.9643 H   0  0  0  0  0  0  0  0  0  0  0  0
    0.7945   -2.4636   -0.6480 H   0  0  0  0  0  0  0  0  0  0  0  0
    0.9691   -1.5929   -2.1758 H   0  0  0  0  0  0  0  0  0  0  0  0
    1.2507    0.6127    1.4180 H   0  0  0  0  0  0  0  0  0  0  0  0
    1.0002   -1.1341    1.5173 H   0  0  0  0  0  0  0  0  0  0  0  0
    2.9877   -1.5496    0.0951 H   0  0  0  0  0  0  0  0  0  0  0  0
    3.0822   -0.7811   -1.4873 H   0  0  0  0  0  0  0  0  0  0  0  0
    3.2315    1.4797   -0.4171 H   0  0  0  0  0  0  0  0  0  0  0  0
    3.2010    0.7615    1.1788 H   0  0  0  0  0  0  0  0  0  0  0  0
   -3.5216    0.8346    2.1740 H   0  0  0  0  0  0  0  0  0  0  0  0
   -3.0788    0.7359   -2.0997 H   0  0  0  0  0  0  0  0  0  0  0  0
   -5.5173   -0.2206   -0.4916 H   0  0  0  0  0  0  0  0  0  0  0  0
    5.0013   -0.5708    2.0793 H   0  0  0  0  0  0  0  0  0  0  0  0
    5.2285    1.2288   -1.8286 H   0  0  0  0  0  0  0  0  0  0  0  0
   -4.1498    3.2303    2.0514 H   0  0  0  0  0  0  0  0  0  0  0  0
   -3.6963    3.1291   -2.2207 H   0  0  0  0  0  0  0  0  0  0  0  0
   -4.2374    4.3780   -0.1464 H   0  0  0  0  0  0  0  0  0  0  0  0
    7.4486   -0.9154    2.0571 H   0  0  0  0  0  0  0  0  0  0  0  0
    7.6759    0.8788   -1.8409 H   0  0  0  0  0  0  0  0  0  0  0  0
    8.7901   -0.1931    0.0992 H   0  0  0  0  0  0  0  0  0  0  0  0
   -7.3379   -1.5303    0.3387 H   0  0  0  0  0  0  0  0  0  0  0  0
   -6.1872   -2.8859    0.8650 H   0  0  0  0  0  0  0  0  0  0  0  0
  1 12  2  0  0  0  0
  2  7  1  0  0  0  0
  2  8  1  0  0  0  0
  2  9  1  0  0  0  0
  3  4  1  0  0  0  0
  3 11  1  0  0  0  0
  3 12  1  0  0  0  0
  4  5  1  0  0  0  0
  4  6  1  0  0  0  0
  4 26  1  0  0  0  0
  5  7  1  0  0  0  0
  5 27  1  0  0  0  0
  5 28  1  0  0  0  0
  6  8  1  0  0  0  0
  6 29  1  0  0  0  0
  6 30  1  0  0  0  0
  7 31  1  0  0  0  0
  7 32  1  0  0  0  0
  8 33  1  0  0  0  0
  8 34  1  0  0  0  0
  9 10  1  0  0  0  0
  9 35  1  0  0  0  0
  9 36  1  0  0  0  0
 10 13  1  0  0  0  0
 10 37  1  0  0  0  0
 10 38  1  0  0  0  0
 11 14  2  0  0  0  0
 11 15  1  0  0  0  0
 12 16  1  0  0  0  0
 13 17  2  0  0  0  0
 13 18  1  0  0  0  0
 14 19  1  0  0  0  0
 14 39  1  0  0  0  0
 15 20  2  0  0  0  0
 15 40  1  0  0  0  0
 16 25  2  0  0  0  0
 16 41  1  0  0  0  0
 17 22  1  0  0  0  0
 17 42  1  0  0  0  0
 18 23  2  0  0  0  0
 18 43  1  0  0  0  0
 19 21  2  0  0  0  0
 19 44  1  0  0  0  0
 20 21  1  0  0  0  0
 20 45  1  0  0  0  0
 21 46  1  0  0  0  0
 22 24  2  0  0  0  0
 22 47  1  0  0  0  0
 23 24  1  0  0  0  0
 23 48  1  0  0  0  0
 24 49  1  0  0  0  0
 25 50  1  0  0  0  0
 25 51  1  0  0  0  0
M  END
> <PUBCHEM_COMPOUND_CID>
10314851

> <PUBCHEM_CONFORMER_RMSD>
0.8

> <PUBCHEM_CONFORMER_DIVERSEORDER>
1
73
78
110
13
81
21
14
101
113
7
94
28
92
15
97
65
50
36
67
111
35
41
103
8
105
52
38
30
100
5
63
23
98
4
112
54
12
2
93
57
85
58
96
108
60
104
33
77
43
95
68
91
29
71
106
69
83
59
79
114
31
39
19
32
80
90
99
82
64
49
47
51
20
25
76
17
45
62
109
56
88
42
72
74
22
6
10
86
48
70
27
9
102
66
89
26
107
18
24
40
46
87
11
44
55
61
37
75
53
84
3
16
34

> <PUBCHEM_MMFF94_PARTIAL_CHARGES>
36
1 -0.57
10 0.14
11 0.12
12 0.62
13 -0.14
14 -0.15
15 -0.15
16 -0.14
17 -0.15
18 -0.15
19 -0.15
2 -0.81
20 -0.15
21 -0.15
22 -0.15
23 -0.15
24 -0.15
25 -0.3
3 -0.48
39 0.15
4 0.3
40 0.15
41 0.15
42 0.15
43 0.15
44 0.15
45 0.15
46 0.15
47 0.15
48 0.15
49 0.15
50 0.15
51 0.15
7 0.27
8 0.27
9 0.27

> <PUBCHEM_EFFECTIVE_ROTOR_COUNT>
8.2

> <PUBCHEM_PHARMACOPHORE_FEATURES>
6
1 1 acceptor
1 2 cation
1 25 hydrophobe
6 11 14 15 19 20 21 rings
6 13 17 18 22 23 24 rings
6 2 4 5 6 7 8 rings

> <PUBCHEM_HEAVY_ATOM_COUNT>
25

> <PUBCHEM_ATOM_DEF_STEREO_COUNT>
0

> <PUBCHEM_ATOM_UDEF_STEREO_COUNT>
0

> <PUBCHEM_BOND_DEF_STEREO_COUNT>
0

> <PUBCHEM_BOND_UDEF_STEREO_COUNT>
0

> <PUBCHEM_ISOTOPIC_ATOM_COUNT>
0

> <PUBCHEM_COMPONENT_COUNT>
1

> <PUBCHEM_CACTVS_TAUTO_COUNT>
1

> <PUBCHEM_CONFORMER_ID>
009D646300000001

> <PUBCHEM_MMFF94_ENERGY>
89.2677

> <PUBCHEM_FEATURE_SELFOVERLAP>
30.446

> <PUBCHEM_SHAPE_FINGERPRINT>
10076449 9 17632003231389036701
100830 39 18410009906075766412
10290309 65 17988650648758204102
10411042 1 18050850215843564011
105312 117 17988922245588760164
10595046 47 18259702324515376794
10638233 991 17749680683612926452
11101153 10 18190184666182385653
11135926 11 13686303439739946676
11315181 36 13045944611868649839
12107183 9 17829035520995764186
12107698 1 18336264642860836856
12166972 35 18335704991975516528
12236239 1 17603580841776514306
12403259 415 17846774126817506784
13073987 5 18411418376118009866
13631057 29 18410007780214745571
13914758 101 16660634151253166367
14068700 675 18262517138765047879
14118638 360 18410853239852219970
14251764 18 18041000657178354876
14856354 85 18337114578350548055
15021287 119 17167582683422003724
15183329 4 17748825216326702458
15419008 47 17775282781189178584
1577012 14 18186523186026231264
15849732 13 13038913240016126771
15876981 60 18114185258650130461
17780758 139 13695875783412516549
17844677 252 18338519741852996776
17980427 23 17822019700243653004
19489759 90 18408603677689739114
20281389 69 18408884040871443096
21033648 144 18196370325590112069
21033648 29 17632282480797370816
21236236 1 18408885131170449237
21279426 13 17987808393519090678
21315759 40 17676203594093190722
21315764 268 18341888653785918840
22956985 138 17182785901319651315
23081809 10 17821447959373001024
23198884 109 17967252022562057690
23522609 53 17749973080797141372
23569943 247 16299769951387920218
24771293 8 12535330309130910730
249057 25 17894920658676673956
283562 15 18409166602759904843
2838139 119 18342167826813191364
350125 39 18341615949306123025
3633792 109 16660631960915284171
4197921 191 18260271884439206620
497634 4 17967244317127160031
5104073 3 18269277876249468618
58083652 198 15936408970879460508
5969126 39 18271236214776530495
6327066 14 18116989980254546285
7808743 9 18264487291592840345
9996256 80 18260546727896799598

> <PUBCHEM_SHAPE_MULTIPOLES>
498.66
19.18
2.7
1.26
33.52
1.28
-0.02
0.64
1.64
-7.03
-0.19
0.36
0.29
-0.26

> <PUBCHEM_SHAPE_SELFOVERLAP>
1053.683

> <PUBCHEM_SHAPE_VOLUME>
276.3

> <PUBCHEM_COORDINATE_TYPE>
2
5
10

$$$$

187760
  -OEChem-12311612393D

 43 44  0     0  0  0  0  0  0999 V2000
   -3.6557    2.7141   -0.5676 Cl  0  0  0  0  0  0  0  0  0  0  0  0
   -6.2149    0.7990   -0.0606 Cl  0  0  0  0  0  0  0  0  0  0  0  0
   -0.4632   -2.4231    0.8012 O   0  0  0  0  0  0  0  0  0  0  0  0
    3.9710   -0.6511   -0.2758 N   0  0  0  0  0  0  0  0  0  0  0  0
    0.2974   -0.7622   -0.6302 N   0  0  0  0  0  0  0  0  0  0  0  0
    2.6072   -0.1092   -0.1938 C   0  0  0  0  0  0  0  0  0  0  0  0
    2.2721    0.2322    1.2735 C   0  0  0  0  0  0  0  0  0  0  0  0
    2.4754    1.1519   -1.0748 C   0  0  0  0  0  0  0  0  0  0  0  0
    3.0493    1.4355    1.8111 C   0  0  0  0  0  0  0  0  0  0  0  0
    3.2545    2.3531   -0.5360 C   0  0  0  0  0  0  0  0  0  0  0  0
    2.8865    2.6575    0.9127 C   0  0  0  0  0  0  0  0  0  0  0  0
    1.6550   -1.2010   -0.7028 C   0  0  0  0  0  0  0  0  0  0  0  0
    4.3003   -0.9781   -1.6596 C   0  0  0  0  0  0  0  0  0  0  0  0
    4.0967   -1.8282    0.5783 C   0  0  0  0  0  0  0  0  0  0  0  0
   -0.6728   -1.4173    0.1282 C   0  0  0  0  0  0  0  0  0  0  0  0
   -2.0452   -0.8507    0.0779 C   0  0  0  0  0  0  0  0  0  0  0  0
   -2.2018    0.4939   -0.1880 C   0  0  0  0  0  0  0  0  0  0  0  0
   -3.1195   -1.6873    0.2998 C   0  0  0  0  0  0  0  0  0  0  0  0
   -3.4905    1.0257   -0.2341 C   0  0  0  0  0  0  0  0  0  0  0  0
   -4.4080   -1.1555    0.2538 C   0  0  0  0  0  0  0  0  0  0  0  0
   -4.5937    0.2009   -0.0133 C   0  0  0  0  0  0  0  0  0  0  0  0
    2.3367   -0.6104    1.9670 H   0  0  0  0  0  0  0  0  0  0  0  0
    1.2136    0.5239    1.3323 H   0  0  0  0  0  0  0  0  0  0  0  0
    1.4257    1.4751   -1.0847 H   0  0  0  0  0  0  0  0  0  0  0  0
    2.7037    0.9907   -2.1318 H   0  0  0  0  0  0  0  0  0  0  0  0
    4.1122    1.1820    1.9013 H   0  0  0  0  0  0  0  0  0  0  0  0
    2.6959    1.6776    2.8202 H   0  0  0  0  0  0  0  0  0  0  0  0
    3.0459    3.2326   -1.1562 H   0  0  0  0  0  0  0  0  0  0  0  0
    4.3315    2.1621   -0.6113 H   0  0  0  0  0  0  0  0  0  0  0  0
    1.8471    3.0059    0.9581 H   0  0  0  0  0  0  0  0  0  0  0  0
    3.5118    3.4757    1.2873 H   0  0  0  0  0  0  0  0  0  0  0  0
    1.7154   -2.1397   -0.1517 H   0  0  0  0  0  0  0  0  0  0  0  0
    1.7921   -1.4290   -1.7636 H   0  0  0  0  0  0  0  0  0  0  0  0
    4.3154   -0.1188   -2.3332 H   0  0  0  0  0  0  0  0  0  0  0  0
    3.7217   -1.7919   -2.1055 H   0  0  0  0  0  0  0  0  0  0  0  0
    5.3416   -1.3291   -1.6830 H   0  0  0  0  0  0  0  0  0  0  0  0
    5.1427   -2.1628    0.5256 H   0  0  0  0  0  0  0  0  0  0  0  0
    3.5166   -2.7057    0.2822 H   0  0  0  0  0  0  0  0  0  0  0  0
    3.9631   -1.6326    1.6442 H   0  0  0  0  0  0  0  0  0  0  0  0
    0.0145   -0.0276   -1.2695 H   0  0  0  0  0  0  0  0  0  0  0  0
   -1.3552    1.1595   -0.3287 H   0  0  0  0  0  0  0  0  0  0  0  0
   -2.9923   -2.7462    0.5038 H   0  0  0  0  0  0  0  0  0  0  0  0
   -5.2565   -1.8130    0.4267 H   0  0  0  0  0  0  0  0  0  0  0  0
  1 19  1  0  0  0  0
  2 21  1  0  0  0  0
  3 15  2  0  0  0  0
  4  6  1  0  0  0  0
  4 13  1  0  0  0  0
  4 14  1  0  0  0  0
  5 12  1  0  0  0  0
  5 15  1  0  0  0  0
  5 40  1  0  0  0  0
  6  7  1  0  0  0  0
  6  8  1  0  0  0  0
  6 12  1  0  0  0  0
  7  9  1  0  0  0  0
  7 22  1  0  0  0  0
  7 23  1  0  0  0  0
  8 10  1  0  0  0  0
  8 24  1  0  0  0  0
  8 25  1  0  0  0  0
  9 11  1  0  0  0  0
  9 26  1  0  0  0  0
  9 27  1  0  0  0  0
 10 11  1  0  0  0  0
 10 28  1  0  0  0  0
 10 29  1  0  0  0  0
 11 30  1  0  0  0  0
 11 31  1  0  0  0  0
 12 32  1  0  0  0  0
 12 33  1  0  0  0  0
 13 34  1  0  0  0  0
 13 35  1  0  0  0  0
 13 36  1  0  0  0  0
 14 37  1  0  0  0  0
 14 38  1  0  0  0  0
 14 39  1  0  0  0  0
 15 16  1  0  0  0  0
 16 17  2  0  0  0  0
 16 18  1  0  0  0  0
 17 19  1  0  0  0  0
 17 41  1  0  0  0  0
 18 20  2  0  0  0  0
 18 42  1  0  0  0  0
 19 21  2  0  0  0  0
 20 21  1  0  0  0  0
 20 43  1  0  0  0  0
M  END
> <PUBCHEM_COMPOUND_CID>
187760

> <PUBCHEM_CONFORMER_RMSD>
0.8

> <PUBCHEM_CONFORMER_DIVERSEORDER>
2
17
13
23
24
26
25
9
22
14
27
28
18
10
11
1
5
16
21
7
12
19
6
15
3
8
20
4

> <PUBCHEM_MMFF94_PARTIAL_CHARGES>
20
1 -0.18
12 0.3
13 0.27
14 0.27
15 0.54
16 0.09
17 -0.15
18 -0.15
19 0.18
2 -0.18
20 -0.15
21 0.18
3 -0.57
4 -0.81
40 0.37
41 0.15
42 0.15
43 0.15
5 -0.73
6 0.27

> <PUBCHEM_EFFECTIVE_ROTOR_COUNT>
6.2

> <PUBCHEM_PHARMACOPHORE_FEATURES>
5
1 3 acceptor
1 4 cation
1 5 donor
6 16 17 18 19 20 21 rings
6 6 7 8 9 10 11 rings

> <PUBCHEM_HEAVY_ATOM_COUNT>
21

> <PUBCHEM_ATOM_DEF_STEREO_COUNT>
0

> <PUBCHEM_ATOM_UDEF_STEREO_COUNT>
0

> <PUBCHEM_BOND_DEF_STEREO_COUNT>
0

> <PUBCHEM_BOND_UDEF_STEREO_COUNT>
0

> <PUBCHEM_ISOTOPIC_ATOM_COUNT>
0

> <PUBCHEM_COMPONENT_COUNT>
1

> <PUBCHEM_CACTVS_TAUTO_COUNT>
2

> <PUBCHEM_CONFORMER_ID>
0002DD7000000002

> <PUBCHEM_MMFF94_ENERGY>
59.407

> <PUBCHEM_FEATURE_SELFOVERLAP>
25.371

> <PUBCHEM_SHAPE_FINGERPRINT>
10498660 4 18336827584598960901
10646746 165 18409165498092914301
1100329 8 16826715085769559225
11405975 8 18412265038667892683
11552529 35 13118584943217631625
11595378 159 16805314483747332037
12236239 1 16878231896141807583
12403259 415 18334292050750661221
12403260 363 18410566271712174823
12596602 18 15792029882310679517
13081056 2 18412826889257073637
13134695 92 16988560165838157272
13224815 77 18411977000991352285
13533116 47 16950555542150257611
14178342 30 17899408981279789706
14251764 38 18342174462247572089
14252887 29 7925912594889050598
14466204 15 18191860133266809930
14866123 147 16612520312585764758
15196674 1 18409451427293595869
15238133 3 18262236617328962298
15961568 22 18189615127775720557
17349148 13 15482676753770513838
17868525 174 18263635169985634570
18186145 218 18343587330314577955
192875 21 16845579699115375274
21065198 57 18409729568985749347
212847 35 18334579023037421734
21503847 285 18040156227557844220
221357 26 18273218556130353509
22224240 67 11819574674349383806
23227448 37 18270675493541669111
23559900 14 18410578404773045270
350125 39 18335986393493983029
351380 180 18412260627720453807
495365 180 17917705833822944098
5104073 3 18409735092719705819
5281201 14 18273502272942517860
633830 44 18411130364158714431
7808743 9 17906171003465606544
8509985 295 18335977563421336018
9709674 26 18266462185921063779

> <PUBCHEM_SHAPE_MULTIPOLES>
420.08
11.63
2.75
1.21
9.89
1.16
-0.11
2.02
0.7
-0.79
-0.24
-1.57
0.22
1.19

> <PUBCHEM_SHAPE_SELFOVERLAP>
855.937

> <PUBCHEM_SHAPE_VOLUME>
246.7

> <PUBCHEM_COORDINATE_TYPE>
2
5
10

$$$$

621174
  -OEChem-12311612403D

 56 58  0     0  0  0  0  0  0999 V2000
   -3.4815   -2.7731   -0.1032 O   0  0  0  0  0  0  0  0  0  0  0  0
    1.5907   -0.0824   -0.4851 N   0  0  0  0  0  0  0  0  0  0  0  0
   -2.5947   -0.5753   -0.0738 N   0  0  0  0  0  0  0  0  0  0  0  0
   -1.2031   -0.9152   -0.2361 C   0  0  0  0  0  0  0  0  0  0  0  0
   -0.6425   -0.3140   -1.5247 C   0  0  0  0  0  0  0  0  0  0  0  0
   -0.3792   -0.4507    0.9652 C   0  0  0  0  0  0  0  0  0  0  0  0
    0.8577   -0.5825   -1.6563 C   0  0  0  0  0  0  0  0  0  0  0  0
    1.1121   -0.7161    0.7514 C   0  0  0  0  0  0  0  0  0  0  0  0
    3.0276   -0.3017   -0.6491 C   0  0  0  0  0  0  0  0  0  0  0  0
    3.8130    0.3314    0.5001 C   0  0  0  0  0  0  0  0  0  0  0  0
   -2.9580    0.8354    0.0414 C   0  0  0  0  0  0  0  0  0  0  0  0
   -3.6344   -1.5518   -0.0203 C   0  0  0  0  0  0  0  0  0  0  0  0
   -5.0459   -0.9837    0.1081 C   0  0  0  0  0  0  0  0  0  0  0  0
    5.2982    0.1319    0.3314 C   0  0  0  0  0  0  0  0  0  0  0  0
   -2.9911    1.3788    1.2910 C   0  0  0  0  0  0  0  0  0  0  0  0
   -3.2382    1.5114   -1.1087 C   0  0  0  0  0  0  0  0  0  0  0  0
   -6.1183   -2.0730    0.1610 C   0  0  0  0  0  0  0  0  0  0  0  0
    5.8998   -0.9943    0.8726 C   0  0  0  0  0  0  0  0  0  0  0  0
    6.0379    1.0776   -0.3625 C   0  0  0  0  0  0  0  0  0  0  0  0
   -3.3375    2.7254    1.4011 C   0  0  0  0  0  0  0  0  0  0  0  0
   -3.5844    2.8581   -0.9984 C   0  0  0  0  0  0  0  0  0  0  0  0
   -7.5087   -1.4791    0.3200 C   0  0  0  0  0  0  0  0  0  0  0  0
   -3.6340    3.4651    0.2565 C   0  0  0  0  0  0  0  0  0  0  0  0
    7.2735   -1.1792    0.7165 C   0  0  0  0  0  0  0  0  0  0  0  0
    7.4117    0.8926   -0.5187 C   0  0  0  0  0  0  0  0  0  0  0  0
    8.0293   -0.2358    0.0207 C   0  0  0  0  0  0  0  0  0  0  0  0
   -1.1198   -2.0074   -0.3048 H   0  0  0  0  0  0  0  0  0  0  0  0
   -0.7730    0.7734   -1.5556 H   0  0  0  0  0  0  0  0  0  0  0  0
   -1.1691   -0.7235   -2.3952 H   0  0  0  0  0  0  0  0  0  0  0  0
   -0.7194   -0.9586    1.8759 H   0  0  0  0  0  0  0  0  0  0  0  0
   -0.4898    0.6252    1.1404 H   0  0  0  0  0  0  0  0  0  0  0  0
    1.0277   -1.6585   -1.7940 H   0  0  0  0  0  0  0  0  0  0  0  0
    1.2157   -0.0787   -2.5626 H   0  0  0  0  0  0  0  0  0  0  0  0
    1.6019   -0.3086    1.6393 H   0  0  0  0  0  0  0  0  0  0  0  0
    1.2976   -1.7981    0.7376 H   0  0  0  0  0  0  0  0  0  0  0  0
    3.3597    0.1552   -1.5908 H   0  0  0  0  0  0  0  0  0  0  0  0
    3.2564   -1.3737   -0.7218 H   0  0  0  0  0  0  0  0  0  0  0  0
    3.5541   -0.0917    1.4758 H   0  0  0  0  0  0  0  0  0  0  0  0
    3.5918    1.4049    0.5687 H   0  0  0  0  0  0  0  0  0  0  0  0
   -5.2541   -0.3390   -0.7519 H   0  0  0  0  0  0  0  0  0  0  0  0
   -5.1128   -0.3932    1.0277 H   0  0  0  0  0  0  0  0  0  0  0  0
   -2.7736    0.8037    2.1848 H   0  0  0  0  0  0  0  0  0  0  0  0
   -3.2132    1.0400   -2.0855 H   0  0  0  0  0  0  0  0  0  0  0  0
   -5.9200   -2.7536    0.9976 H   0  0  0  0  0  0  0  0  0  0  0  0
   -6.0849   -2.6756   -0.7546 H   0  0  0  0  0  0  0  0  0  0  0  0
    5.3198   -1.7366    1.4138 H   0  0  0  0  0  0  0  0  0  0  0  0
    5.5657    1.9585   -0.7879 H   0  0  0  0  0  0  0  0  0  0  0  0
   -3.3792    3.1972    2.3785 H   0  0  0  0  0  0  0  0  0  0  0  0
   -3.8185    3.4333   -1.8895 H   0  0  0  0  0  0  0  0  0  0  0  0
   -7.5850   -0.9008    1.2463 H   0  0  0  0  0  0  0  0  0  0  0  0
   -8.2592   -2.2751    0.3539 H   0  0  0  0  0  0  0  0  0  0  0  0
   -7.7514   -0.8188   -0.5187 H   0  0  0  0  0  0  0  0  0  0  0  0
   -3.9051    4.5133    0.3423 H   0  0  0  0  0  0  0  0  0  0  0  0
    7.7544   -2.0581    1.1357 H   0  0  0  0  0  0  0  0  0  0  0  0
    8.0005    1.6268   -1.0609 H   0  0  0  0  0  0  0  0  0  0  0  0
    9.0989   -0.3799   -0.1013 H   0  0  0  0  0  0  0  0  0  0  0  0
  1 12  2  0  0  0  0
  2  7  1  0  0  0  0
  2  8  1  0  0  0  0
  2  9  1  0  0  0  0
  3  4  1  0  0  0  0
  3 11  1  0  0  0  0
  3 12  1  0  0  0  0
  4  5  1  0  0  0  0
  4  6  1  0  0  0  0
  4 27  1  0  0  0  0
  5  7  1  0  0  0  0
  5 28  1  0  0  0  0
  5 29  1  0  0  0  0
  6  8  1  0  0  0  0
  6 30  1  0  0  0  0
  6 31  1  0  0  0  0
  7 32  1  0  0  0  0
  7 33  1  0  0  0  0
  8 34  1  0  0  0  0
  8 35  1  0  0  0  0
  9 10  1  0  0  0  0
  9 36  1  0  0  0  0
  9 37  1  0  0  0  0
 10 14  1  0  0  0  0
 10 38  1  0  0  0  0
 10 39  1  0  0  0  0
 11 15  2  0  0  0  0
 11 16  1  0  0  0  0
 12 13  1  0  0  0  0
 13 17  1  0  0  0  0
 13 40  1  0  0  0  0
 13 41  1  0  0  0  0
 14 18  2  0  0  0  0
 14 19  1  0  0  0  0
 15 20  1  0  0  0  0
 15 42  1  0  0  0  0
 16 21  2  0  0  0  0
 16 43  1  0  0  0  0
 17 22  1  0  0  0  0
 17 44  1  0  0  0  0
 17 45  1  0  0  0  0
 18 24  1  0  0  0  0
 18 46  1  0  0  0  0
 19 25  2  0  0  0  0
 19 47  1  0  0  0  0
 20 23  2  0  0  0  0
 20 48  1  0  0  0  0
 21 23  1  0  0  0  0
 21 49  1  0  0  0  0
 22 50  1  0  0  0  0
 22 51  1  0  0  0  0
 22 52  1  0  0  0  0
 23 53  1  0  0  0  0
 24 26  2  0  0  0  0
 24 54  1  0  0  0  0
 25 26  1  0  0  0  0
 25 55  1  0  0  0  0
 26 56  1  0  0  0  0
M  END
> <PUBCHEM_COMPOUND_CID>
621174

> <PUBCHEM_CONFORMER_RMSD>
1

> <PUBCHEM_CONFORMER_DIVERSEORDER>
1
24
30
64
57
8
28
69
63
37
48
19
55
21
54
9
13
34
15
67
14
10
41
7
27
43
39
51
5
40
36
18
56
66
3
6
35
58
70
4
60
25
52
38
42
16
47
68
29
50
45
61
26
62
65
22
12
59
20
49
11
23
53
31
32
33
46
17
2
44

> <PUBCHEM_MMFF94_PARTIAL_CHARGES>
32
1 -0.57
10 0.14
11 0.12
12 0.57
13 0.06
14 -0.14
15 -0.15
16 -0.15
18 -0.15
19 -0.15
2 -0.81
20 -0.15
21 -0.15
23 -0.15
24 -0.15
25 -0.15
26 -0.15
3 -0.48
4 0.3
42 0.15
43 0.15
46 0.15
47 0.15
48 0.15
49 0.15
53 0.15
54 0.15
55 0.15
56 0.15
7 0.27
8 0.27
9 0.27

> <PUBCHEM_EFFECTIVE_ROTOR_COUNT>
9.2

> <PUBCHEM_PHARMACOPHORE_FEATURES>
6
1 1 acceptor
1 2 cation
1 22 hydrophobe
6 11 15 16 20 21 23 rings
6 14 18 19 24 25 26 rings
6 2 4 5 6 7 8 rings

> <PUBCHEM_HEAVY_ATOM_COUNT>
26

> <PUBCHEM_ATOM_DEF_STEREO_COUNT>
0

> <PUBCHEM_ATOM_UDEF_STEREO_COUNT>
0

> <PUBCHEM_BOND_DEF_STEREO_COUNT>
0

> <PUBCHEM_BOND_UDEF_STEREO_COUNT>
0

> <PUBCHEM_ISOTOPIC_ATOM_COUNT>
0

> <PUBCHEM_COMPONENT_COUNT>
1

> <PUBCHEM_CACTVS_TAUTO_COUNT>
1

> <PUBCHEM_CONFORMER_ID>
00097A7600000001

> <PUBCHEM_MMFF94_ENERGY>
82.0477

> <PUBCHEM_FEATURE_SELFOVERLAP>
30.446

> <PUBCHEM_SHAPE_FINGERPRINT>
10050765 1 18266177223600233507
100830 39 18410572843207673736
105312 117 17418089889182045684
10595046 47 18334574651203897690
10638233 991 17968387840118495644
11101153 10 18263365948319290380
11135926 11 13758077355467103852
11315181 36 18113337522204857781
11524674 6 16773517771297859719
12107183 9 17903349308794015538
12107698 1 18340768233951065896
12166972 35 18261393390442109100
12236239 1 17967811652120864418
12596602 18 18333447638821313304
12664476 115 17917990616341438416
13073987 5 18410009906239212322
13631057 29 18410006663486149915
13914758 101 16877654656821474397
14068700 675 18262519320618788887
14118638 360 18408602535460884746
14150022 121 17703802405676813849
14251764 18 18187368740231834934
14856354 85 18341055219376443102
15183329 4 18259981549298229690
15419008 47 17704069607723040360
15876981 60 18334860527979164612
17844677 252 18410858789487666360
19303781 99 17413012546950826879
19489759 90 18410573989747235354
20281389 69 18413106161327375560
21033648 29 17346303891695742176
21130935 74 18335130961681666522
21236236 1 18335419058394841620
21315763 28 18335137592783486650
21792961 116 17703793583439291034
22956985 138 17329429961701876299
23081809 10 17821730521055597862
23522609 53 17822876186471041964
23559900 14 18117272768794104883
249057 25 18041572407177284276
2838139 119 18059284358606678064
3633792 109 16877936157409889119
3663271 9 18334010584854144786
4197921 191 18334298699639597084
497634 4 18113892766976576158
5104073 3 18128824049077724410
5969126 39 18272642477231756133
6327066 14 18118114771922721869
9996256 80 18335137592514513226

> <PUBCHEM_SHAPE_MULTIPOLES>
519.24
20.93
2.77
1.21
32.03
1.94
-0.14
-4.65
2.57
-6.47
0.25
-0.23
0.31
-0.65

> <PUBCHEM_SHAPE_SELFOVERLAP>
1085.839

> <PUBCHEM_SHAPE_VOLUME>
291.1

> <PUBCHEM_COORDINATE_TYPE>
2
5
10

$$$$

61583
  -OEChem-12311612423D

 39 40  0     0  0  0  0  0  0999 V2000
   -0.8811    1.2969   -0.8112 O   0  0  0  0  0  0  0  0  0  0  0  0
   -1.9364    0.7355    1.1623 O   0  0  0  0  0  0  0  0  0  0  0  0
    3.1909    1.0811    0.0722 N   0  0  0  0  0  0  0  0  0  0  0  0
    0.2945    0.5841   -0.3912 C   0  0  0  0  0  0  0  0  0  0  0  0
    0.8475    1.3360    0.8416 C   0  0  0  0  0  0  0  0  0  0  0  0
    1.3410    0.7375   -1.5188 C   0  0  0  0  0  0  0  0  0  0  0  0
    2.2786    0.9278    1.2122 C   0  0  0  0  0  0  0  0  0  0  0  0
    2.7389    0.2950   -1.0821 C   0  0  0  0  0  0  0  0  0  0  0  0
   -0.1336   -0.8697   -0.1772 C   0  0  0  0  0  0  0  0  0  0  0  0
    4.5528    0.7048    0.4494 C   0  0  0  0  0  0  0  0  0  0  0  0
   -0.0146   -1.4516    1.0841 C   0  0  0  0  0  0  0  0  0  0  0  0
   -0.6422   -1.6097   -1.2437 C   0  0  0  0  0  0  0  0  0  0  0  0
   -1.9269    1.2889    0.0714 C   0  0  0  0  0  0  0  0  0  0  0  0
   -0.4048   -2.7765    1.2794 C   0  0  0  0  0  0  0  0  0  0  0  0
   -1.0325   -2.9346   -1.0483 C   0  0  0  0  0  0  0  0  0  0  0  0
   -3.0746    2.0762   -0.5160 C   0  0  0  0  0  0  0  0  0  0  0  0
   -0.9138   -3.5179    0.2133 C   0  0  0  0  0  0  0  0  0  0  0  0
   -4.2836    2.0962    0.4028 C   0  0  0  0  0  0  0  0  0  0  0  0
    0.2263    1.2469    1.7375 H   0  0  0  0  0  0  0  0  0  0  0  0
    0.8469    2.4145    0.6210 H   0  0  0  0  0  0  0  0  0  0  0  0
    1.3799    1.7909   -1.8330 H   0  0  0  0  0  0  0  0  0  0  0  0
    1.0489    0.1912   -2.4229 H   0  0  0  0  0  0  0  0  0  0  0  0
    2.6103    1.5808    2.0293 H   0  0  0  0  0  0  0  0  0  0  0  0
    2.3182   -0.0969    1.5954 H   0  0  0  0  0  0  0  0  0  0  0  0
    2.7452   -0.7795   -0.8588 H   0  0  0  0  0  0  0  0  0  0  0  0
    3.4227    0.4547   -1.9247 H   0  0  0  0  0  0  0  0  0  0  0  0
    4.6242   -0.3471    0.7489 H   0  0  0  0  0  0  0  0  0  0  0  0
    4.9076    1.3250    1.2800 H   0  0  0  0  0  0  0  0  0  0  0  0
    5.2433    0.8734   -0.3844 H   0  0  0  0  0  0  0  0  0  0  0  0
    0.3467   -0.9193    1.9550 H   0  0  0  0  0  0  0  0  0  0  0  0
   -0.7583   -1.1716   -2.2307 H   0  0  0  0  0  0  0  0  0  0  0  0
   -0.3189   -3.2294    2.2628 H   0  0  0  0  0  0  0  0  0  0  0  0
   -1.4327   -3.5109   -1.8772 H   0  0  0  0  0  0  0  0  0  0  0  0
   -2.7356    3.1023   -0.6930 H   0  0  0  0  0  0  0  0  0  0  0  0
   -3.3537    1.6200   -1.4717 H   0  0  0  0  0  0  0  0  0  0  0  0
   -1.2199   -4.5486    0.3659 H   0  0  0  0  0  0  0  0  0  0  0  0
   -4.0369    2.5524    1.3672 H   0  0  0  0  0  0  0  0  0  0  0  0
   -5.0972    2.6712   -0.0499 H   0  0  0  0  0  0  0  0  0  0  0  0
   -4.6472    1.0814    0.5960 H   0  0  0  0  0  0  0  0  0  0  0  0
  1  4  1  0  0  0  0
  1 13  1  0  0  0  0
  2 13  2  0  0  0  0
  3  7  1  0  0  0  0
  3  8  1  0  0  0  0
  3 10  1  0  0  0  0
  4  5  1  0  0  0  0
  4  6  1  0  0  0  0
  4  9  1  0  0  0  0
  5  7  1  0  0  0  0
  5 19  1  0  0  0  0
  5 20  1  0  0  0  0
  6  8  1  0  0  0  0
  6 21  1  0  0  0  0
  6 22  1  0  0  0  0
  7 23  1  0  0  0  0
  7 24  1  0  0  0  0
  8 25  1  0  0  0  0
  8 26  1  0  0  0  0
  9 11  2  0  0  0  0
  9 12  1  0  0  0  0
 10 27  1  0  0  0  0
 10 28  1  0  0  0  0
 10 29  1  0  0  0  0
 11 14  1  0  0  0  0
 11 30  1  0  0  0  0
 12 15  2  0  0  0  0
 12 31  1  0  0  0  0
 13 16  1  0  0  0  0
 14 17  2  0  0  0  0
 14 32  1  0  0  0  0
 15 17  1  0  0  0  0
 15 33  1  0  0  0  0
 16 18  1  0  0  0  0
 16 34  1  0  0  0  0
 16 35  1  0  0  0  0
 17 36  1  0  0  0  0
 18 37  1  0  0  0  0
 18 38  1  0  0  0  0
 18 39  1  0  0  0  0
M  END
> <PUBCHEM_COMPOUND_CID>
61583

> <PUBCHEM_CONFORMER_RMSD>
0.8

> <PUBCHEM_CONFORMER_DIVERSEORDER>
1
12
11
9
3
4
13
14
5
8
6
10
2
7

> <PUBCHEM_MMFF94_PARTIAL_CHARGES>
20
1 -0.43
10 0.27
11 -0.15
12 -0.15
13 0.66
14 -0.15
15 -0.15
16 0.06
17 -0.15
2 -0.57
3 -0.81
30 0.15
31 0.15
32 0.15
33 0.15
36 0.15
4 0.42
7 0.27
8 0.27
9 -0.14

> <PUBCHEM_EFFECTIVE_ROTOR_COUNT>
5.2

> <PUBCHEM_PHARMACOPHORE_FEATURES>
5
1 18 hydrophobe
1 2 acceptor
1 3 cation
6 3 4 5 6 7 8 rings
6 9 11 12 14 15 17 rings

> <PUBCHEM_HEAVY_ATOM_COUNT>
18

> <PUBCHEM_ATOM_DEF_STEREO_COUNT>
0

> <PUBCHEM_ATOM_UDEF_STEREO_COUNT>
0

> <PUBCHEM_BOND_DEF_STEREO_COUNT>
0

> <PUBCHEM_BOND_UDEF_STEREO_COUNT>
0

> <PUBCHEM_ISOTOPIC_ATOM_COUNT>
0

> <PUBCHEM_COMPONENT_COUNT>
1

> <PUBCHEM_CACTVS_TAUTO_COUNT>
1

> <PUBCHEM_CONFORMER_ID>
0000F08F00000001

> <PUBCHEM_MMFF94_ENERGY>
43.9516

> <PUBCHEM_FEATURE_SELFOVERLAP>
25.371

> <PUBCHEM_SHAPE_FINGERPRINT>
1 1 18192712237260765879
10756046 70 17458919222497400356
10922049 32 18411421665719761913
116883 192 18053945335878017903
12138202 97 18273217529728024420
12500047 106 18411698803338724708
12532896 13 18412259536508506412
12592029 89 18118403947242134784
12716301 132 18340201985409728281
12788726 201 18046920551608560119
13083527 12 17758374306930475573
13538477 17 17824270520889183564
13681431 1 17330546554034182797
14468879 13 16339438329025435608
14817 1 14899093365020791367
15309172 13 18335419028298876797
15502708 68 18192149300355984449
15852999 172 18272942600297134828
15906896 17 18262525917140221243
16945 1 18265346172939155423
20361792 2 17476367570055651670
20524608 308 18342174518134238182
20567600 347 18337394838341409667
20600515 1 17034684935778073040
20645476 183 18187376436449421028
20645477 70 17975974264165352149
20711985 344 18121770888106703994
21054139 6 18341598327461490005
21501502 16 18122626321460385444
21524375 3 18410855425958606893
22112679 90 17615996711866157297
22956985 138 17753048289722959115
23419403 2 17621930497001683347
23558518 356 18124298661028565641
2748010 2 18120684398967520951
276578 36 18336544906656848080
298252 57 16988554671900135997
3060560 45 18335420106367303941
3250762 1 17912638300468321120
427121 178 18341618070761485065
4340502 62 18339933602342979737
5845 1 17054178138724806339
6138700 20 17834965170441650734
633830 44 18059577914888568477
68419 9 17679597893413853660
7364860 26 17907297650569553989
81228 2 18049147058581385305
81539 233 18190741929983767421
9981440 41 16195319872400703536

> <PUBCHEM_SHAPE_MULTIPOLES>
353.71
5.31
3.57
1.38
1.77
3.76
0.08
-5.52
-0.61
-3.01
-0.23
0.26
0.29
-0.07

> <PUBCHEM_SHAPE_SELFOVERLAP>
735.827

> <PUBCHEM_SHAPE_VOLUME>
199.7

> <PUBCHEM_COORDINATE_TYPE>
2
5
10

$$$$
13653606
  -OEChem-12311612443D

 54 57  0     0  0  0  0  0  0999 V2000
   -2.9820   -2.8179    0.3589 O   0  0  0  0  0  0  0  0  0  0  0  0
   -5.0886   -1.0495   -1.0869 O   0  0  0  0  0  0  0  0  0  0  0  0
    2.0029   -0.3937   -0.4307 N   0  0  0  0  0  0  0  0  0  0  0  0
   -2.1765   -0.6115    0.2135 N   0  0  0  0  0  0  0  0  0  0  0  0
   -0.7788   -0.9589    0.2789 C   0  0  0  0  0  0  0  0  0  0  0  0
   -0.2205   -1.2347   -1.1170 C   0  0  0  0  0  0  0  0  0  0  0  0
    0.0309    0.1429    0.9631 C   0  0  0  0  0  0  0  0  0  0  0  0
    1.2844   -1.5048   -1.0700 C   0  0  0  0  0  0  0  0  0  0  0  0
    1.5273   -0.1737    0.9421 C   0  0  0  0  0  0  0  0  0  0  0  0
    3.4440   -0.6445   -0.4389 C   0  0  0  0  0  0  0  0  0  0  0  0
    4.2129    0.5610    0.1032 C   0  0  0  0  0  0  0  0  0  0  0  0
   -2.5556    0.7957    0.0960 C   0  0  0  0  0  0  0  0  0  0  0  0
   -3.2044   -1.6096    0.2608 C   0  0  0  0  0  0  0  0  0  0  0  0
    5.7019    0.3241    0.0794 C   0  0  0  0  0  0  0  0  0  0  0  0
   -2.7526    1.4945    1.2491 C   0  0  0  0  0  0  0  0  0  0  0  0
   -2.6867    1.3102   -1.1590 C   0  0  0  0  0  0  0  0  0  0  0  0
   -4.5863   -1.1296    0.1515 C   0  0  0  0  0  0  0  0  0  0  0  0
    6.3182   -0.2476    1.1821 C   0  0  0  0  0  0  0  0  0  0  0  0
    6.4302    0.6820   -1.0449 C   0  0  0  0  0  0  0  0  0  0  0  0
   -3.1155    2.8366    1.1364 C   0  0  0  0  0  0  0  0  0  0  0  0
   -3.0495    2.6523   -1.2716 C   0  0  0  0  0  0  0  0  0  0  0  0
   -5.4514   -0.7483    1.1105 C   0  0  0  0  0  0  0  0  0  0  0  0
   -3.2639    3.4155   -0.1239 C   0  0  0  0  0  0  0  0  0  0  0  0
    7.6956   -0.4664    1.1601 C   0  0  0  0  0  0  0  0  0  0  0  0
    7.8077    0.4631   -1.0671 C   0  0  0  0  0  0  0  0  0  0  0  0
   -6.6279   -0.3875    0.4112 C   0  0  0  0  0  0  0  0  0  0  0  0
    8.4404   -0.1112    0.0354 C   0  0  0  0  0  0  0  0  0  0  0  0
   -6.3563   -0.5886   -0.9221 C   0  0  0  0  0  0  0  0  0  0  0  0
   -0.6862   -1.8788    0.8712 H   0  0  0  0  0  0  0  0  0  0  0  0
   -0.4036   -0.3831   -1.7837 H   0  0  0  0  0  0  0  0  0  0  0  0
   -0.7329   -2.0941   -1.5664 H   0  0  0  0  0  0  0  0  0  0  0  0
   -0.2890    0.2623    2.0053 H   0  0  0  0  0  0  0  0  0  0  0  0
   -0.0897    1.1136    0.4662 H   0  0  0  0  0  0  0  0  0  0  0  0
    1.6388   -1.6336   -2.1001 H   0  0  0  0  0  0  0  0  0  0  0  0
    1.4723   -2.4483   -0.5408 H   0  0  0  0  0  0  0  0  0  0  0  0
    1.7298   -1.0483    1.5742 H   0  0  0  0  0  0  0  0  0  0  0  0
    2.0062    0.6898    1.4106 H   0  0  0  0  0  0  0  0  0  0  0  0
    3.7742   -0.8333   -1.4690 H   0  0  0  0  0  0  0  0  0  0  0  0
    3.6900   -1.5451    0.1403 H   0  0  0  0  0  0  0  0  0  0  0  0
    3.9742    1.4604   -0.4802 H   0  0  0  0  0  0  0  0  0  0  0  0
    3.9552    0.7983    1.1402 H   0  0  0  0  0  0  0  0  0  0  0  0
   -2.6464    1.0442    2.2303 H   0  0  0  0  0  0  0  0  0  0  0  0
   -2.5304    0.7172   -2.0535 H   0  0  0  0  0  0  0  0  0  0  0  0
    5.7471   -0.5305    2.0618 H   0  0  0  0  0  0  0  0  0  0  0  0
    5.9463    1.1281   -1.9091 H   0  0  0  0  0  0  0  0  0  0  0  0
   -3.2849    3.4301    2.0300 H   0  0  0  0  0  0  0  0  0  0  0  0
   -3.1677    3.1023   -2.2529 H   0  0  0  0  0  0  0  0  0  0  0  0
   -5.2868   -0.7226    2.1780 H   0  0  0  0  0  0  0  0  0  0  0  0
   -3.5477    4.4601   -0.2116 H   0  0  0  0  0  0  0  0  0  0  0  0
    8.1882   -0.9143    2.0182 H   0  0  0  0  0  0  0  0  0  0  0  0
    8.3875    0.7392   -1.9429 H   0  0  0  0  0  0  0  0  0  0  0  0
   -7.5571   -0.0258    0.8269 H   0  0  0  0  0  0  0  0  0  0  0  0
    9.5128   -0.2820    0.0181 H   0  0  0  0  0  0  0  0  0  0  0  0
   -6.9275   -0.4574   -1.8295 H   0  0  0  0  0  0  0  0  0  0  0  0
  1 13  2  0  0  0  0
  2 17  1  0  0  0  0
  2 28  1  0  0  0  0
  3  8  1  0  0  0  0
  3  9  1  0  0  0  0
  3 10  1  0  0  0  0
  4  5  1  0  0  0  0
  4 12  1  0  0  0  0
  4 13  1  0  0  0  0
  5  6  1  0  0  0  0
  5  7  1  0  0  0  0
  5 29  1  0  0  0  0
  6  8  1  0  0  0  0
  6 30  1  0  0  0  0
  6 31  1  0  0  0  0
  7  9  1  0  0  0  0
  7 32  1  0  0  0  0
  7 33  1  0  0  0  0
  8 34  1  0  0  0  0
  8 35  1  0  0  0  0
  9 36  1  0  0  0  0
  9 37  1  0  0  0  0
 10 11  1  0  0  0  0
 10 38  1  0  0  0  0
 10 39  1  0  0  0  0
 11 14  1  0  0  0  0
 11 40  1  0  0  0  0
 11 41  1  0  0  0  0
 12 15  2  0  0  0  0
 12 16  1  0  0  0  0
 13 17  1  0  0  0  0
 14 18  2  0  0  0  0
 14 19  1  0  0  0  0
 15 20  1  0  0  0  0
 15 42  1  0  0  0  0
 16 21  2  0  0  0  0
 16 43  1  0  0  0  0
 17 22  2  0  0  0  0
 18 24  1  0  0  0  0
 18 44  1  0  0  0  0
 19 25  2  0  0  0  0
 19 45  1  0  0  0  0
 20 23  2  0  0  0  0
 20 46  1  0  0  0  0
 21 23  1  0  0  0  0
 21 47  1  0  0  0  0
 22 26  1  0  0  0  0
 22 48  1  0  0  0  0
 23 49  1  0  0  0  0
 24 27  2  0  0  0  0
 24 50  1  0  0  0  0
 25 27  1  0  0  0  0
 25 51  1  0  0  0  0
 26 28  2  0  0  0  0
 26 52  1  0  0  0  0
 27 53  1  0  0  0  0
 28 54  1  0  0  0  0
M  END
> <PUBCHEM_COMPOUND_CID>
13653606

> <PUBCHEM_CONFORMER_RMSD>
1

> <PUBCHEM_CONFORMER_DIVERSEORDER>
1
48
37
8
11
58
34
47
22
56
39
55
14
16
23
29
36
59
32
7
49
15
3
30
63
25
38
35
45
9
20
18
27
64
42
46
10
24
51
44
50
12
5
53
31
17
41
54
28
61
62
6
40
43
26
13
33
2
57
19
60
21
52
4

> <PUBCHEM_MMFF94_PARTIAL_CHARGES>
39
1 -0.57
10 0.27
11 0.14
12 0.12
13 0.71
14 -0.14
15 -0.15
16 -0.15
17 0.05
18 -0.15
19 -0.15
2 -0.28
20 -0.15
21 -0.15
22 -0.15
23 -0.15
24 -0.15
25 -0.15
26 -0.15
27 -0.15
28 -0.01
3 -0.81
4 -0.48
42 0.15
43 0.15
44 0.15
45 0.15
46 0.15
47 0.15
48 0.15
49 0.15
5 0.3
50 0.15
51 0.15
52 0.15
53 0.15
54 0.15
8 0.27
9 0.27

> <PUBCHEM_EFFECTIVE_ROTOR_COUNT>
8.2

> <PUBCHEM_PHARMACOPHORE_FEATURES>
7
1 1 acceptor
1 2 acceptor
1 3 cation
5 2 17 22 26 28 rings
6 12 15 16 20 21 23 rings
6 14 18 19 24 25 27 rings
6 3 5 6 7 8 9 rings

> <PUBCHEM_HEAVY_ATOM_COUNT>
28

> <PUBCHEM_ATOM_DEF_STEREO_COUNT>
0

> <PUBCHEM_ATOM_UDEF_STEREO_COUNT>
0

> <PUBCHEM_BOND_DEF_STEREO_COUNT>
0

> <PUBCHEM_BOND_UDEF_STEREO_COUNT>
0

> <PUBCHEM_ISOTOPIC_ATOM_COUNT>
0

> <PUBCHEM_COMPONENT_COUNT>
1

> <PUBCHEM_CACTVS_TAUTO_COUNT>
1

> <PUBCHEM_CONFORMER_ID>
00D0566600000001

> <PUBCHEM_MMFF94_ENERGY>
91.9037

> <PUBCHEM_FEATURE_SELFOVERLAP>
35.523

> <PUBCHEM_SHAPE_FINGERPRINT>
10076449 9 17989197158631058357
100830 39 18408040689545939628
10369192 42 16845576408922604197
11101153 10 18188215406687366980
11135926 11 13901908865459081252
11315181 36 16153712024274453661
12107698 1 18408884066171839400
12166972 35 18114464547947767172
12236239 1 17167578310602100410
12664476 115 18060416933229906344
12788726 201 18336820919263002457
13073987 5 18339643330946121330
13914758 101 16515677827733301700
14068700 675 18337106882132598645
14118638 360 18410573942740225258
14251764 18 18186803578570774708
14856354 85 18337394936598708566
15183329 4 18113337505985019336
15419008 47 17846775217950742816
15849732 13 13398633857609874531
19489759 90 18408041818974431162
20281389 69 18410854370219565408
21236236 1 18410292488805704405
21792961 116 18131073702182825274
23081809 10 17676207962486147032
23522609 53 17532112544208513804
23559900 14 18337668749274031417
249057 25 17895204311418237380
283562 15 18410292463990507531
350125 39 18413109480624964769
3633792 109 17023170592657206851
4197921 191 18260552230076979620
4325135 7 18273216400114442357
44317340 157 12967118442057931586
445580 37 18334018285245261788
5080951 261 16772930606466139910
5104073 3 18266462010080820578
59755656 215 18273217499605419358
7226269 152 18259984899067161747

> <PUBCHEM_SHAPE_MULTIPOLES>
554.53
21.65
2.44
1.3
41.11
1.81
-0.03
-0.94
0.28
-4.85
-0.11
0.1
0.21
-0.31

> <PUBCHEM_SHAPE_SELFOVERLAP>
1198.418

> <PUBCHEM_SHAPE_VOLUME>
302.8

> <PUBCHEM_COORDINATE_TYPE>
2
5
10

$$$$

13653606
  -OEChem-12311612443D

 54 57  0     0  0  0  0  0  0999 V2000
   -2.9820   -2.8179    0.3589 O   0  0  0  0  0  0  0  0  0  0  0  0
   -5.0886   -1.0495   -1.0869 O   0  0  0  0  0  0  0  0  0  0  0  0
    2.0029   -0.3937   -0.4307 N   0  0  0  0  0  0  0  0  0  0  0  0
   -2.1765   -0.6115    0.2135 N   0  0  0  0  0  0  0  0  0  0  0  0
   -0.7788   -0.9589    0.2789 C   0  0  0  0  0  0  0  0  0  0  0  0
   -0.2205   -1.2347   -1.1170 C   0  0  0  0  0  0  0  0  0  0  0  0
    0.0309    0.1429    0.9631 C   0  0  0  0  0  0  0  0  0  0  0  0
    1.2844   -1.5048   -1.0700 C   0  0  0  0  0  0  0  0  0  0  0  0
    1.5273   -0.1737    0.9421 C   0  0  0  0  0  0  0  0  0  0  0  0
    3.4440   -0.6445   -0.4389 C   0  0  0  0  0  0  0  0  0  0  0  0
    4.2129    0.5610    0.1032 C   0  0  0  0  0  0  0  0  0  0  0  0
   -2.5556    0.7957    0.0960 C   0  0  0  0  0  0  0  0  0  0  0  0
   -3.2044   -1.6096    0.2608 C   0  0  0  0  0  0  0  0  0  0  0  0
    5.7019    0.3241    0.0794 C   0  0  0  0  0  0  0  0  0  0  0  0
   -2.7526    1.4945    1.2491 C   0  0  0  0  0  0  0  0  0  0  0  0
   -2.6867    1.3102   -1.1590 C   0  0  0  0  0  0  0  0  0  0  0  0
   -4.5863   -1.1296    0.1515 C   0  0  0  0  0  0  0  0  0  0  0  0
    6.3182   -0.2476    1.1821 C   0  0  0  0  0  0  0  0  0  0  0  0
    6.4302    0.6820   -1.0449 C   0  0  0  0  0  0  0  0  0  0  0  0
   -3.1155    2.8366    1.1364 C   0  0  0  0  0  0  0  0  0  0  0  0
   -3.0495    2.6523   -1.2716 C   0  0  0  0  0  0  0  0  0  0  0  0
   -5.4514   -0.7483    1.1105 C   0  0  0  0  0  0  0  0  0  0  0  0
   -3.2639    3.4155   -0.1239 C   0  0  0  0  0  0  0  0  0  0  0  0
    7.6956   -0.4664    1.1601 C   0  0  0  0  0  0  0  0  0  0  0  0
    7.8077    0.4631   -1.0671 C   0  0  0  0  0  0  0  0  0  0  0  0
   -6.6279   -0.3875    0.4112 C   0  0  0  0  0  0  0  0  0  0  0  0
    8.4404   -0.1112    0.0354 C   0  0  0  0  0  0  0  0  0  0  0  0
   -6.3563   -0.5886   -0.9221 C   0  0  0  0  0  0  0  0  0  0  0  0
   -0.6862   -1.8788    0.8712 H   0  0  0  0  0  0  0  0  0  0  0  0
   -0.4036   -0.3831   -1.7837 H   0  0  0  0  0  0  0  0  0  0  0  0
   -0.7329   -2.0941   -1.5664 H   0  0  0  0  0  0  0  0  0  0  0  0
   -0.2890    0.2623    2.0053 H   0  0  0  0  0  0  0  0  0  0  0  0
   -0.0897    1.1136    0.4662 H   0  0  0  0  0  0  0  0  0  0  0  0
    1.6388   -1.6336   -2.1001 H   0  0  0  0  0  0  0  0  0  0  0  0
    1.4723   -2.4483   -0.5408 H   0  0  0  0  0  0  0  0  0  0  0  0
    1.7298   -1.0483    1.5742 H   0  0  0  0  0  0  0  0  0  0  0  0
    2.0062    0.6898    1.4106 H   0  0  0  0  0  0  0  0  0  0  0  0
    3.7742   -0.8333   -1.4690 H   0  0  0  0  0  0  0  0  0  0  0  0
    3.6900   -1.5451    0.1403 H   0  0  0  0  0  0  0  0  0  0  0  0
    3.9742    1.4604   -0.4802 H   0  0  0  0  0  0  0  0  0  0  0  0
    3.9552    0.7983    1.1402 H   0  0  0  0  0  0  0  0  0  0  0  0
   -2.6464    1.0442    2.2303 H   0  0  0  0  0  0  0  0  0  0  0  0
   -2.5304    0.7172   -2.0535 H   0  0  0  0  0  0  0  0  0  0  0  0
    5.7471   -0.5305    2.0618 H   0  0  0  0  0  0  0  0  0  0  0  0
    5.9463    1.1281   -1.9091 H   0  0  0  0  0  0  0  0  0  0  0  0
   -3.2849    3.4301    2.0300 H   0  0  0  0  0  0  0  0  0  0  0  0
   -3.1677    3.1023   -2.2529 H   0  0  0  0  0  0  0  0  0  0  0  0
   -5.2868   -0.7226    2.1780 H   0  0  0  0  0  0  0  0  0  0  0  0
   -3.5477    4.4601   -0.2116 H   0  0  0  0  0  0  0  0  0  0  0  0
    8.1882   -0.9143    2.0182 H   0  0  0  0  0  0  0  0  0  0  0  0
    8.3875    0.7392   -1.9429 H   0  0  0  0  0  0  0  0  0  0  0  0
   -7.5571   -0.0258    0.8269 H   0  0  0  0  0  0  0  0  0  0  0  0
    9.5128   -0.2820    0.0181 H   0  0  0  0  0  0  0  0  0  0  0  0
   -6.9275   -0.4574   -1.8295 H   0  0  0  0  0  0  0  0  0  0  0  0
  1 13  2  0  0  0  0
  2 17  1  0  0  0  0
  2 28  1  0  0  0  0
  3  8  1  0  0  0  0
  3  9  1  0  0  0  0
  3 10  1  0  0  0  0
  4  5  1  0  0  0  0
  4 12  1  0  0  0  0
  4 13  1  0  0  0  0
  5  6  1  0  0  0  0
  5  7  1  0  0  0  0
  5 29  1  0  0  0  0
  6  8  1  0  0  0  0
  6 30  1  0  0  0  0
  6 31  1  0  0  0  0
  7  9  1  0  0  0  0
  7 32  1  0  0  0  0
  7 33  1  0  0  0  0
  8 34  1  0  0  0  0
  8 35  1  0  0  0  0
  9 36  1  0  0  0  0
  9 37  1  0  0  0  0
 10 11  1  0  0  0  0
 10 38  1  0  0  0  0
 10 39  1  0  0  0  0
 11 14  1  0  0  0  0
 11 40  1  0  0  0  0
 11 41  1  0  0  0  0
 12 15  2  0  0  0  0
 12 16  1  0  0  0  0
 13 17  1  0  0  0  0
 14 18  2  0  0  0  0
 14 19  1  0  0  0  0
 15 20  1  0  0  0  0
 15 42  1  0  0  0  0
 16 21  2  0  0  0  0
 16 43  1  0  0  0  0
 17 22  2  0  0  0  0
 18 24  1  0  0  0  0
 18 44  1  0  0  0  0
 19 25  2  0  0  0  0
 19 45  1  0  0  0  0
 20 23  2  0  0  0  0
 20 46  1  0  0  0  0
 21 23  1  0  0  0  0
 21 47  1  0  0  0  0
 22 26  1  0  0  0  0
 22 48  1  0  0  0  0
 23 49  1  0  0  0  0
 24 27  2  0  0  0  0
 24 50  1  0  0  0  0
 25 27  1  0  0  0  0
 25 51  1  0  0  0  0
 26 28  2  0  0  0  0
 26 52  1  0  0  0  0
 27 53  1  0  0  0  0
 28 54  1  0  0  0  0
M  END
> <PUBCHEM_COMPOUND_CID>
13653606

> <PUBCHEM_CONFORMER_RMSD>
1

> <PUBCHEM_CONFORMER_DIVERSEORDER>
1
48
37
8
11
58
34
47
22
56
39
55
14
16
23
29
36
59
32
7
49
15
3
30
63
25
38
35
45
9
20
18
27
64
42
46
10
24
51
44
50
12
5
53
31
17
41
54
28
61
62
6
40
43
26
13
33
2
57
19
60
21
52
4

> <PUBCHEM_MMFF94_PARTIAL_CHARGES>
39
1 -0.57
10 0.27
11 0.14
12 0.12
13 0.71
14 -0.14
15 -0.15
16 -0.15
17 0.05
18 -0.15
19 -0.15
2 -0.28
20 -0.15
21 -0.15
22 -0.15
23 -0.15
24 -0.15
25 -0.15
26 -0.15
27 -0.15
28 -0.01
3 -0.81
4 -0.48
42 0.15
43 0.15
44 0.15
45 0.15
46 0.15
47 0.15
48 0.15
49 0.15
5 0.3
50 0.15
51 0.15
52 0.15
53 0.15
54 0.15
8 0.27
9 0.27

> <PUBCHEM_EFFECTIVE_ROTOR_COUNT>
8.2

> <PUBCHEM_PHARMACOPHORE_FEATURES>
7
1 1 acceptor
1 2 acceptor
1 3 cation
5 2 17 22 26 28 rings
6 12 15 16 20 21 23 rings
6 14 18 19 24 25 27 rings
6 3 5 6 7 8 9 rings

> <PUBCHEM_HEAVY_ATOM_COUNT>
28

> <PUBCHEM_ATOM_DEF_STEREO_COUNT>
0

> <PUBCHEM_ATOM_UDEF_STEREO_COUNT>
0

> <PUBCHEM_BOND_DEF_STEREO_COUNT>
0

> <PUBCHEM_BOND_UDEF_STEREO_COUNT>
0

> <PUBCHEM_ISOTOPIC_ATOM_COUNT>
0

> <PUBCHEM_COMPONENT_COUNT>
1

> <PUBCHEM_CACTVS_TAUTO_COUNT>
1

> <PUBCHEM_CONFORMER_ID>
00D0566600000001

> <PUBCHEM_MMFF94_ENERGY>
91.9037

> <PUBCHEM_FEATURE_SELFOVERLAP>
35.523

> <PUBCHEM_SHAPE_FINGERPRINT>
10076449 9 17989197158631058357
100830 39 18408040689545939628
10369192 42 16845576408922604197
11101153 10 18188215406687366980
11135926 11 13901908865459081252
11315181 36 16153712024274453661
12107698 1 18408884066171839400
12166972 35 18114464547947767172
12236239 1 17167578310602100410
12664476 115 18060416933229906344
12788726 201 18336820919263002457
13073987 5 18339643330946121330
13914758 101 16515677827733301700
14068700 675 18337106882132598645
14118638 360 18410573942740225258
14251764 18 18186803578570774708
14856354 85 18337394936598708566
15183329 4 18113337505985019336
15419008 47 17846775217950742816
15849732 13 13398633857609874531
19489759 90 18408041818974431162
20281389 69 18410854370219565408
21236236 1 18410292488805704405
21792961 116 18131073702182825274
23081809 10 17676207962486147032
23522609 53 17532112544208513804
23559900 14 18337668749274031417
249057 25 17895204311418237380
283562 15 18410292463990507531
350125 39 18413109480624964769
3633792 109 17023170592657206851
4197921 191 18260552230076979620
4325135 7 18273216400114442357
44317340 157 12967118442057931586
445580 37 18334018285245261788
5080951 261 16772930606466139910
5104073 3 18266462010080820578
59755656 215 18273217499605419358
7226269 152 18259984899067161747

> <PUBCHEM_SHAPE_MULTIPOLES>
554.53
21.65
2.44
1.3
41.11
1.81
-0.03
-0.94
0.28
-4.85
-0.11
0.1
0.21
-0.31

> <PUBCHEM_SHAPE_SELFOVERLAP>
1198.418

> <PUBCHEM_SHAPE_VOLUME>
302.8

> <PUBCHEM_COORDINATE_TYPE>
2
5
10

$$$$


431865
  -OEChem-12311612453D

 58 61  0     1  0  0  0  0  0999 V2000
    3.0810   -0.2713   -0.1857 N   0  0  0  0  0  0  0  0  0  0  0  0
    0.2392   -0.0168    0.2811 N   0  0  0  0  0  0  0  0  0  0  0  0
    4.4818   -0.1430    0.2112 C   0  0  0  0  0  0  0  0  0  0  0  0
    5.1498   -1.5224    0.2172 C   0  0  0  0  0  0  0  0  0  0  0  0
    5.2062    0.8178   -0.7380 C   0  0  0  0  0  0  0  0  0  0  0  0
    2.4205    1.0398   -0.1985 C   0  0  0  0  0  0  0  0  0  0  0  0
    2.3691   -1.1956    0.7054 C   0  0  0  0  0  0  0  0  0  0  0  0
    6.6365   -1.4195    0.5535 C   0  0  0  0  0  0  0  0  0  0  0  0
    6.6928    0.9183   -0.3999 C   0  0  0  0  0  0  0  0  0  0  0  0
    0.9507    0.9062   -0.6116 C   0  0  0  0  0  0  0  0  0  0  0  0
    0.8990   -1.3282    0.2932 C   0  0  0  0  0  0  0  0  0  0  0  0
    7.3596   -0.4542   -0.3818 C   0  0  0  0  0  0  0  0  0  0  0  0
   -1.1621   -0.1443   -0.1139 C   0  0  1  0  0  0  0  0  0  0  0  0
   -1.8539   -1.2264    0.7451 C   0  0  0  0  0  0  0  0  0  0  0  0
   -1.8635    1.2021   -0.0572 C   0  0  0  0  0  0  0  0  0  0  0  0
   -3.2806   -1.4976    0.3255 C   0  0  0  0  0  0  0  0  0  0  0  0
   -2.8548    1.4802   -0.9779 C   0  0  0  0  0  0  0  0  0  0  0  0
   -1.4909    2.1111    0.9140 C   0  0  0  0  0  0  0  0  0  0  0  0
   -4.3063   -0.7658    0.9004 C   0  0  0  0  0  0  0  0  0  0  0  0
   -3.5334   -2.4721   -0.6256 C   0  0  0  0  0  0  0  0  0  0  0  0
   -3.4989    2.7163   -0.9258 C   0  0  0  0  0  0  0  0  0  0  0  0
   -2.1353    3.3471    0.9661 C   0  0  0  0  0  0  0  0  0  0  0  0
   -3.1393    3.6497    0.0461 C   0  0  0  0  0  0  0  0  0  0  0  0
   -5.6227   -1.0158    0.5132 C   0  0  0  0  0  0  0  0  0  0  0  0
   -4.8499   -2.7219   -1.0128 C   0  0  0  0  0  0  0  0  0  0  0  0
   -5.8946   -1.9936   -0.4433 C   0  0  0  0  0  0  0  0  0  0  0  0
    4.5452    0.2706    1.2285 H   0  0  0  0  0  0  0  0  0  0  0  0
    5.0320   -2.0122   -0.7582 H   0  0  0  0  0  0  0  0  0  0  0  0
    4.7243   -2.1872    0.9752 H   0  0  0  0  0  0  0  0  0  0  0  0
    4.8206    1.8396   -0.6693 H   0  0  0  0  0  0  0  0  0  0  0  0
    5.0928    0.4894   -1.7794 H   0  0  0  0  0  0  0  0  0  0  0  0
    2.8591    1.7081   -0.9448 H   0  0  0  0  0  0  0  0  0  0  0  0
    2.4897    1.5318    0.7809 H   0  0  0  0  0  0  0  0  0  0  0  0
    2.4366   -0.8688    1.7519 H   0  0  0  0  0  0  0  0  0  0  0  0
    2.7685   -2.2119    0.6418 H   0  0  0  0  0  0  0  0  0  0  0  0
    7.0995   -2.4107    0.4881 H   0  0  0  0  0  0  0  0  0  0  0  0
    6.7547   -1.0794    1.5899 H   0  0  0  0  0  0  0  0  0  0  0  0
    6.8137    1.3950    0.5807 H   0  0  0  0  0  0  0  0  0  0  0  0
    7.1952    1.5613   -1.1316 H   0  0  0  0  0  0  0  0  0  0  0  0
    0.5381    1.9191   -0.6118 H   0  0  0  0  0  0  0  0  0  0  0  0
    0.9012    0.5495   -1.6505 H   0  0  0  0  0  0  0  0  0  0  0  0
    0.8236   -1.8270   -0.6823 H   0  0  0  0  0  0  0  0  0  0  0  0
    0.4836   -1.9908    1.0567 H   0  0  0  0  0  0  0  0  0  0  0  0
    8.4052   -0.3523   -0.0701 H   0  0  0  0  0  0  0  0  0  0  0  0
    7.3675   -0.8687   -1.3975 H   0  0  0  0  0  0  0  0  0  0  0  0
   -1.1922   -0.4868   -1.1603 H   0  0  0  0  0  0  0  0  0  0  0  0
   -1.3673   -2.2040    0.6816 H   0  0  0  0  0  0  0  0  0  0  0  0
   -1.8363   -0.9473    1.8081 H   0  0  0  0  0  0  0  0  0  0  0  0
   -3.1377    0.7663   -1.7456 H   0  0  0  0  0  0  0  0  0  0  0  0
   -0.7346    1.8955    1.6625 H   0  0  0  0  0  0  0  0  0  0  0  0
   -4.1088   -0.0085    1.6535 H   0  0  0  0  0  0  0  0  0  0  0  0
   -2.7270   -3.0420   -1.0780 H   0  0  0  0  0  0  0  0  0  0  0  0
   -4.2796    2.9523   -1.6430 H   0  0  0  0  0  0  0  0  0  0  0  0
   -1.8603    4.0717    1.7270 H   0  0  0  0  0  0  0  0  0  0  0  0
   -3.6419    4.6115    0.0876 H   0  0  0  0  0  0  0  0  0  0  0  0
   -6.4362   -0.4499    0.9579 H   0  0  0  0  0  0  0  0  0  0  0  0
   -5.0617   -3.4825   -1.7585 H   0  0  0  0  0  0  0  0  0  0  0  0
   -6.9198   -2.1882   -0.7448 H   0  0  0  0  0  0  0  0  0  0  0  0
  1  3  1  0  0  0  0
  1  6  1  0  0  0  0
  1  7  1  0  0  0  0
  2 10  1  0  0  0  0
  2 11  1  0  0  0  0
  2 13  1  0  0  0  0
  3  4  1  0  0  0  0
  3  5  1  0  0  0  0
  3 27  1  0  0  0  0
  4  8  1  0  0  0  0
  4 28  1  0  0  0  0
  4 29  1  0  0  0  0
  5  9  1  0  0  0  0
  5 30  1  0  0  0  0
  5 31  1  0  0  0  0
  6 10  1  0  0  0  0
  6 32  1  0  0  0  0
  6 33  1  0  0  0  0
  7 11  1  0  0  0  0
  7 34  1  0  0  0  0
  7 35  1  0  0  0  0
  8 12  1  0  0  0  0
  8 36  1  0  0  0  0
  8 37  1  0  0  0  0
  9 12  1  0  0  0  0
  9 38  1  0  0  0  0
  9 39  1  0  0  0  0
 10 40  1  0  0  0  0
 10 41  1  0  0  0  0
 11 42  1  0  0  0  0
 11 43  1  0  0  0  0
 12 44  1  0  0  0  0
 12 45  1  0  0  0  0
 13 14  1  0  0  0  0
 13 15  1  0  0  0  0
 13 46  1  0  0  0  0
 14 16  1  0  0  0  0
 14 47  1  0  0  0  0
 14 48  1  0  0  0  0
 15 17  2  0  0  0  0
 15 18  1  0  0  0  0
 16 19  2  0  0  0  0
 16 20  1  0  0  0  0
 17 21  1  0  0  0  0
 17 49  1  0  0  0  0
 18 22  2  0  0  0  0
 18 50  1  0  0  0  0
 19 24  1  0  0  0  0
 19 51  1  0  0  0  0
 20 25  2  0  0  0  0
 20 52  1  0  0  0  0
 21 23  2  0  0  0  0
 21 53  1  0  0  0  0
 22 23  1  0  0  0  0
 22 54  1  0  0  0  0
 23 55  1  0  0  0  0
 24 26  2  0  0  0  0
 24 56  1  0  0  0  0
 25 26  1  0  0  0  0
 25 57  1  0  0  0  0
 26 58  1  0  0  0  0
M  END
> <PUBCHEM_COMPOUND_CID>
431865

> <PUBCHEM_CONFORMER_RMSD>
0.8

> <PUBCHEM_CONFORMER_DIVERSEORDER>
1
48
22
16
30
3
8
25
12
38
21
43
37
36
41
29
23
15
49
34
2
45
44
50
14
6
7
20
18
52
46
17
33
54
53
13
5
51
31
40
28
35
32
42
9
4
27
11
24
19
10
47
26
39

> <PUBCHEM_MMFF94_PARTIAL_CHARGES>
31
1 -0.81
10 0.27
11 0.27
13 0.41
14 0.14
15 -0.14
16 -0.14
17 -0.15
18 -0.15
19 -0.15
2 -0.81
20 -0.15
21 -0.15
22 -0.15
23 -0.15
24 -0.15
25 -0.15
26 -0.15
3 0.27
49 0.15
50 0.15
51 0.15
52 0.15
53 0.15
54 0.15
55 0.15
56 0.15
57 0.15
58 0.15
6 0.27
7 0.27

> <PUBCHEM_EFFECTIVE_ROTOR_COUNT>
7.4

> <PUBCHEM_PHARMACOPHORE_FEATURES>
6
1 1 cation
1 2 cation
6 1 2 6 7 10 11 rings
6 15 17 18 21 22 23 rings
6 16 19 20 24 25 26 rings
6 3 4 5 8 9 12 rings

> <PUBCHEM_HEAVY_ATOM_COUNT>
26

> <PUBCHEM_ATOM_DEF_STEREO_COUNT>
0

> <PUBCHEM_ATOM_UDEF_STEREO_COUNT>
1

> <PUBCHEM_BOND_DEF_STEREO_COUNT>
0

> <PUBCHEM_BOND_UDEF_STEREO_COUNT>
0

> <PUBCHEM_ISOTOPIC_ATOM_COUNT>
0

> <PUBCHEM_COMPONENT_COUNT>
1

> <PUBCHEM_CACTVS_TAUTO_COUNT>
1

> <PUBCHEM_CONFORMER_ID>
000696F900000001

> <PUBCHEM_MMFF94_ENERGY>
68.9905

> <PUBCHEM_FEATURE_SELFOVERLAP>
30.451

> <PUBCHEM_SHAPE_FINGERPRINT>
10050765 1 18193839245385942834
10076449 9 18408318900879917821
10411042 1 18267583688630708279
10595046 47 18408323285730420186
11056379 131 18341618096267434215
11101153 10 18261960759864065732
11524674 6 16415481579483849271
11545043 162 18272926103728619216
12107183 9 17758391877816075882
12107698 1 18410855494915278652
12166972 35 18114183068670587196
12760667 363 18409730698868005907
12788726 201 18335412466037125075
13073987 5 18408319970094685202
13533116 47 18337393867842681876
13540713 5 17970332733488824523
13583140 156 17631720591911841498
13631057 29 18410570691096157987
13782708 43 17632574985240138758
14068700 675 18337107972748343053
14118638 360 18260831501840890830
14347332 77 18410855468960748094
14508225 48 18335413625773337877
15131766 46 15838995658582024056
15196674 1 18334013861761164976
16087824 20 18338516341020068317
17844677 252 18410299112315148876
17857418 61 18410013264692615126
18927931 339 18411985762746008127
19427546 20 18335137570929050109
21236236 1 18334576819613547848
21267235 1 18335707191035455147
21304303 172 18060424634338168721
2132832 1 18114467846018362188
21424621 283 11386906875731861167
21641784 216 18114475525577902885
23081809 10 17676492710185758710
23402539 116 18410854386750646599
23522609 53 18123784008130392880
23557571 272 18342179959625609237
23559900 14 18116150167380142393
249057 25 17967821557196365572
25147074 1 17968648316308915162
255183 313 18198082300198168425
283562 15 18334857204148983947
3004659 81 18114737243567771011
335352 9 18411976984713595831
34797466 226 17846225492686480020
350125 39 18409451392380359345
4214541 1 18335421232038826444
4325135 7 18408887360585738054
4409770 3 18338508656900920333
497634 4 18186799162721889868
504579 68 18041572411983681846
5080951 261 16772929498401611206
5104073 3 18334289835043233672
5171179 24 18129088091431222409
5969126 39 18342450465815060829
59755656 520 18190174595042998789
6700243 42 17843435988014947540
7237137 82 18335421261871508781
9996256 80 18411983555311996914

> <PUBCHEM_SHAPE_MULTIPOLES>
525.11
16.84
3.51
0.97
26.15
2.47
-0.01
-7.73
-1.72
-6.26
-0.08
-0.53
0.1
-1.05

> <PUBCHEM_SHAPE_SELFOVERLAP>
1115.339

> <PUBCHEM_SHAPE_VOLUME>
288.4

> <PUBCHEM_COORDINATE_TYPE>
2
5
10

$$$$

130829
  -OEChem-12311612483D

 41 42  0     1  0  0  0  0  0999 V2000
   -0.6023    1.4977   -1.6667 O   0  0  0  0  0  0  0  0  0  0  0  0
    3.1719   -1.6993    1.7365 O   0  0  0  0  0  0  0  0  0  0  0  0
   -2.2427   -2.1942   -0.3069 N   0  0  0  0  0  0  0  0  0  0  0  0
   -1.3386    0.0289    0.1309 C   0  0  1  0  0  0  0  0  0  0  0  0
   -0.3050    1.1117   -0.3160 C   0  0  2  0  0  0  0  0  0  0  0  0
   -2.7632    0.6034    0.2606 C   0  0  0  0  0  0  0  0  0  0  0  0
   -0.4171    2.3832    0.5609 C   0  0  0  0  0  0  0  0  0  0  0  0
   -2.8045    1.8344    1.1589 C   0  0  0  0  0  0  0  0  0  0  0  0
   -1.8454    2.9151    0.6790 C   0  0  0  0  0  0  0  0  0  0  0  0
   -1.3756   -1.1796   -0.8160 C   0  0  0  0  0  0  0  0  0  0  0  0
    1.1385    0.5908   -0.2556 C   0  0  0  0  0  0  0  0  0  0  0  0
    1.5010   -0.3273    0.7253 C   0  0  0  0  0  0  0  0  0  0  0  0
    2.0743    1.0398   -1.1825 C   0  0  0  0  0  0  0  0  0  0  0  0
   -1.8017   -2.6748    1.0157 C   0  0  0  0  0  0  0  0  0  0  0  0
   -2.3405   -3.3408   -1.2289 C   0  0  0  0  0  0  0  0  0  0  0  0
    2.8119   -0.8009    0.7798 C   0  0  0  0  0  0  0  0  0  0  0  0
    3.3850    0.5663   -1.1280 C   0  0  0  0  0  0  0  0  0  0  0  0
    3.7539   -0.3542   -0.1470 C   0  0  0  0  0  0  0  0  0  0  0  0
   -1.0721   -0.2675    1.1473 H   0  0  0  0  0  0  0  0  0  0  0  0
   -3.4547   -0.1381    0.6767 H   0  0  0  0  0  0  0  0  0  0  0  0
   -3.1498    0.8723   -0.7309 H   0  0  0  0  0  0  0  0  0  0  0  0
    0.2111    3.1826    0.1466 H   0  0  0  0  0  0  0  0  0  0  0  0
   -0.0395    2.1746    1.5709 H   0  0  0  0  0  0  0  0  0  0  0  0
   -2.5493    1.5470    2.1864 H   0  0  0  0  0  0  0  0  0  0  0  0
   -3.8242    2.2355    1.1849 H   0  0  0  0  0  0  0  0  0  0  0  0
   -2.1785    3.2960   -0.2940 H   0  0  0  0  0  0  0  0  0  0  0  0
   -1.8651    3.7615    1.3749 H   0  0  0  0  0  0  0  0  0  0  0  0
   -0.3679   -1.5789   -0.9809 H   0  0  0  0  0  0  0  0  0  0  0  0
   -1.7411   -0.8521   -1.7977 H   0  0  0  0  0  0  0  0  0  0  0  0
   -0.3368    0.7786   -2.2645 H   0  0  0  0  0  0  0  0  0  0  0  0
    0.8178   -0.6803    1.4881 H   0  0  0  0  0  0  0  0  0  0  0  0
    1.8205    1.7680   -1.9473 H   0  0  0  0  0  0  0  0  0  0  0  0
   -1.9993   -1.9479    1.8085 H   0  0  0  0  0  0  0  0  0  0  0  0
   -0.7403   -2.9480    1.0250 H   0  0  0  0  0  0  0  0  0  0  0  0
   -2.3756   -3.5632    1.3070 H   0  0  0  0  0  0  0  0  0  0  0  0
   -2.6993   -3.0115   -2.2103 H   0  0  0  0  0  0  0  0  0  0  0  0
   -3.0675   -4.0720   -0.8584 H   0  0  0  0  0  0  0  0  0  0  0  0
   -1.3752   -3.8425   -1.3622 H   0  0  0  0  0  0  0  0  0  0  0  0
    4.1197    0.9168   -1.8471 H   0  0  0  0  0  0  0  0  0  0  0  0
    4.7785   -0.7148   -0.1150 H   0  0  0  0  0  0  0  0  0  0  0  0
    4.1132   -1.9176    1.6256 H   0  0  0  0  0  0  0  0  0  0  0  0
  1  5  1  0  0  0  0
  1 30  1  0  0  0  0
  2 16  1  0  0  0  0
  2 41  1  0  0  0  0
  3 10  1  0  0  0  0
  3 14  1  0  0  0  0
  3 15  1  0  0  0  0
  4  5  1  0  0  0  0
  4  6  1  0  0  0  0
  4 10  1  0  0  0  0
  4 19  1  0  0  0  0
  5  7  1  0  0  0  0
  5 11  1  0  0  0  0
  6  8  1  0  0  0  0
  6 20  1  0  0  0  0
  6 21  1  0  0  0  0
  7  9  1  0  0  0  0
  7 22  1  0  0  0  0
  7 23  1  0  0  0  0
  8  9  1  0  0  0  0
  8 24  1  0  0  0  0
  8 25  1  0  0  0  0
  9 26  1  0  0  0  0
  9 27  1  0  0  0  0
 10 28  1  0  0  0  0
 10 29  1  0  0  0  0
 11 12  2  0  0  0  0
 11 13  1  0  0  0  0
 12 16  1  0  0  0  0
 12 31  1  0  0  0  0
 13 17  2  0  0  0  0
 13 32  1  0  0  0  0
 14 33  1  0  0  0  0
 14 34  1  0  0  0  0
 14 35  1  0  0  0  0
 15 36  1  0  0  0  0
 15 37  1  0  0  0  0
 15 38  1  0  0  0  0
 16 18  2  0  0  0  0
 17 18  1  0  0  0  0
 17 39  1  0  0  0  0
 18 40  1  0  0  0  0
M  END
> <PUBCHEM_COMPOUND_CID>
130829

> <PUBCHEM_CONFORMER_RMSD>
0.6

> <PUBCHEM_CONFORMER_DIVERSEORDER>
4
34
5
13
28
54
57
12
37
33
30
51
35
14
56
53
45
29
31
46
39
48
23
17
21
58
2
38
52
47
41
27
6
43
19
49
55
1
44
40
50
36
24
22
18
32
11
26
9
16
20
25
10
7
15
8
42
3

> <PUBCHEM_MMFF94_PARTIAL_CHARGES>
19
1 -0.68
10 0.27
11 -0.14
12 -0.15
13 -0.15
14 0.27
15 0.27
16 0.08
17 -0.15
18 -0.15
2 -0.53
3 -0.81
30 0.4
31 0.15
32 0.15
39 0.15
40 0.15
41 0.45
5 0.42

> <PUBCHEM_EFFECTIVE_ROTOR_COUNT>
4.2

> <PUBCHEM_PHARMACOPHORE_FEATURES>
6
1 1 acceptor
1 1 donor
1 2 donor
1 3 cation
6 11 12 13 16 17 18 rings
6 4 5 6 7 8 9 rings

> <PUBCHEM_HEAVY_ATOM_COUNT>
18

> <PUBCHEM_ATOM_DEF_STEREO_COUNT>
0

> <PUBCHEM_ATOM_UDEF_STEREO_COUNT>
2

> <PUBCHEM_BOND_DEF_STEREO_COUNT>
0

> <PUBCHEM_BOND_UDEF_STEREO_COUNT>
0

> <PUBCHEM_ISOTOPIC_ATOM_COUNT>
0

> <PUBCHEM_COMPONENT_COUNT>
1

> <PUBCHEM_CACTVS_TAUTO_COUNT>
3

> <PUBCHEM_CONFORMER_ID>
0001FF0D00000004

> <PUBCHEM_MMFF94_ENERGY>
53.6155

> <PUBCHEM_FEATURE_SELFOVERLAP>
30.446

> <PUBCHEM_SHAPE_FINGERPRINT>
11578080 2 18044631282601204517
12173636 292 18197497320550435084
12553582 1 18125163989569931975
12788726 201 18339651130490569451
13032168 30 18116438235664259504
13083527 12 17408492483657533859
13140716 1 18269560596834889961
13538477 17 18409172108032031508
14081887 123 18270102639166998592
14178342 30 18339348700542495170
14787075 74 17618508022590044804
15001771 113 18263360446354654025
15279307 12 18262245413005305250
15309172 13 18121788226895199561
15375462 189 18261682583073481059
15669948 3 18411706478023107708
15906896 17 18338246989664545163
16752209 62 18339353064076358149
16945 1 18342743983368664997
20028762 73 17846506967753140983
20442098 301 18410860949481689330
20510252 161 17986682480084157665
20645476 183 18265065651434901308
21452121 199 17768235061915249935
21634736 98 18191036788078436164
21731228 192 18052822446753747425
21731516 1 18052822730174473087
22112679 90 17982759624649002273
22445834 79 18114750334812634200
23184049 29 18198338644429231097
23402539 116 18131628972592407285
23419403 2 16896170582519389685
23500284 5 18335140954978280899
23557571 272 18130508625930377320
23559900 14 18059581231494065604
23598288 3 18338250361171869359
23598291 2 18187374198919114062
23598294 1 18270134503101988610
23728640 28 18340767040045246283
257057 1 18053932124780141679
2748010 2 18056473087388157965
427121 178 17127086454600440545
43471831 8 17979923713752062817
5845 1 12285672414638699413
58807428 26 17981334387075749153
6992083 37 18043806494529652052
7364860 26 17190943173336921239
77492 1 18188500077161482144
81228 2 18272362083906510001
84936 31 14926807710908112974
90525 40 18118687616905123608

> <PUBCHEM_SHAPE_MULTIPOLES>
353.71
5.5
3.44
1.39
4.04
1.23
0.01
1.4
-0.49
-3.95
-0.17
0.4
0.32
-1.61

> <PUBCHEM_SHAPE_SELFOVERLAP>
732.893

> <PUBCHEM_SHAPE_VOLUME>
202

> <PUBCHEM_COORDINATE_TYPE>
2
5
10

$$$$

13544015
  -OEChem-12311612493D

 43 44  0     1  0  0  0  0  0999 V2000
    4.4159   -2.4031    0.4603 Cl  0  0  0  0  0  0  0  0  0  0  0  0
    6.1141    0.3455    0.6482 Cl  0  0  0  0  0  0  0  0  0  0  0  0
    0.0738    0.3761   -2.0331 O   0  0  0  0  0  0  0  0  0  0  0  0
   -2.3135   -1.8331   -0.0235 N   0  0  0  0  0  0  0  0  0  0  0  0
   -0.6240    0.5610    0.1909 N   0  0  0  0  0  0  0  0  0  0  0  0
   -2.8048   -0.5512    0.4878 C   0  0  1  0  0  0  0  0  0  0  0  0
   -2.0296    0.6199   -0.1445 C   0  0  1  0  0  0  0  0  0  0  0  0
   -4.3078   -0.4427    0.2016 C   0  0  0  0  0  0  0  0  0  0  0  0
   -2.6111    1.9698    0.2923 C   0  0  0  0  0  0  0  0  0  0  0  0
   -4.8691    0.9061    0.6440 C   0  0  0  0  0  0  0  0  0  0  0  0
   -4.1068    2.0635    0.0084 C   0  0  0  0  0  0  0  0  0  0  0  0
   -2.5387   -1.9239   -1.4639 C   0  0  0  0  0  0  0  0  0  0  0  0
   -2.9679   -2.9396    0.6707 C   0  0  0  0  0  0  0  0  0  0  0  0
   -0.3019    0.6341    1.6181 C   0  0  0  0  0  0  0  0  0  0  0  0
    0.3292    0.4397   -0.8310 C   0  0  0  0  0  0  0  0  0  0  0  0
    1.7539    0.3998   -0.4652 C   0  0  0  0  0  0  0  0  0  0  0  0
    2.3559   -0.8217   -0.2051 C   0  0  0  0  0  0  0  0  0  0  0  0
    2.4690    1.5850   -0.3861 C   0  0  0  0  0  0  0  0  0  0  0  0
    3.7063   -0.8589    0.1426 C   0  0  0  0  0  0  0  0  0  0  0  0
    3.8192    1.5478   -0.0384 C   0  0  0  0  0  0  0  0  0  0  0  0
    4.4380    0.3259    0.2258 C   0  0  0  0  0  0  0  0  0  0  0  0
   -2.6864   -0.5236    1.5776 H   0  0  0  0  0  0  0  0  0  0  0  0
   -2.1429    0.6228   -1.2323 H   0  0  0  0  0  0  0  0  0  0  0  0
   -4.8837   -1.2109    0.7279 H   0  0  0  0  0  0  0  0  0  0  0  0
   -4.5475   -0.5261   -0.8628 H   0  0  0  0  0  0  0  0  0  0  0  0
   -2.0876    2.7887   -0.2168 H   0  0  0  0  0  0  0  0  0  0  0  0
   -2.4821    2.1385    1.3665 H   0  0  0  0  0  0  0  0  0  0  0  0
   -4.8122    0.9859    1.7366 H   0  0  0  0  0  0  0  0  0  0  0  0
   -5.9297    0.9724    0.3749 H   0  0  0  0  0  0  0  0  0  0  0  0
   -4.2742    2.0619   -1.0757 H   0  0  0  0  0  0  0  0  0  0  0  0
   -4.4961    3.0145    0.3892 H   0  0  0  0  0  0  0  0  0  0  0  0
   -2.0656   -1.1442   -2.0607 H   0  0  0  0  0  0  0  0  0  0  0  0
   -3.5864   -2.0229   -1.7638 H   0  0  0  0  0  0  0  0  0  0  0  0
   -2.0559   -2.8456   -1.8171 H   0  0  0  0  0  0  0  0  0  0  0  0
   -2.4390   -3.8715    0.4376 H   0  0  0  0  0  0  0  0  0  0  0  0
   -4.0143   -3.0943    0.3878 H   0  0  0  0  0  0  0  0  0  0  0  0
   -2.9073   -2.8226    1.7587 H   0  0  0  0  0  0  0  0  0  0  0  0
   -0.7358   -0.2114    2.1550 H   0  0  0  0  0  0  0  0  0  0  0  0
   -0.6446    1.5771    2.0464 H   0  0  0  0  0  0  0  0  0  0  0  0
    0.7744    0.5898    1.7940 H   0  0  0  0  0  0  0  0  0  0  0  0
    1.7767   -1.7397   -0.2718 H   0  0  0  0  0  0  0  0  0  0  0  0
    1.9938    2.5406   -0.5898 H   0  0  0  0  0  0  0  0  0  0  0  0
    4.3741    2.4807    0.0217 H   0  0  0  0  0  0  0  0  0  0  0  0
  1 19  1  0  0  0  0
  2 21  1  0  0  0  0
  3 15  2  0  0  0  0
  4  6  1  0  0  0  0
  4 12  1  0  0  0  0
  4 13  1  0  0  0  0
  5  7  1  0  0  0  0
  5 14  1  0  0  0  0
  5 15  1  0  0  0  0
  6  7  1  0  0  0  0
  6  8  1  0  0  0  0
  6 22  1  0  0  0  0
  7  9  1  0  0  0  0
  7 23  1  0  0  0  0
  8 10  1  0  0  0  0
  8 24  1  0  0  0  0
  8 25  1  0  0  0  0
  9 11  1  0  0  0  0
  9 26  1  0  0  0  0
  9 27  1  0  0  0  0
 10 11  1  0  0  0  0
 10 28  1  0  0  0  0
 10 29  1  0  0  0  0
 11 30  1  0  0  0  0
 11 31  1  0  0  0  0
 12 32  1  0  0  0  0
 12 33  1  0  0  0  0
 12 34  1  0  0  0  0
 13 35  1  0  0  0  0
 13 36  1  0  0  0  0
 13 37  1  0  0  0  0
 14 38  1  0  0  0  0
 14 39  1  0  0  0  0
 14 40  1  0  0  0  0
 15 16  1  0  0  0  0
 16 17  2  0  0  0  0
 16 18  1  0  0  0  0
 17 19  1  0  0  0  0
 17 41  1  0  0  0  0
 18 20  2  0  0  0  0
 18 42  1  0  0  0  0
 19 21  2  0  0  0  0
 20 21  1  0  0  0  0
 20 43  1  0  0  0  0
M  END
> <PUBCHEM_COMPOUND_CID>
13544015

> <PUBCHEM_CONFORMER_RMSD>
0.8

> <PUBCHEM_CONFORMER_DIVERSEORDER>
3
5
30
38
47
59
31
18
49
28
39
44
6
20
68
45
57
19
54
29
11
8
15
60
65
4
55
10
53
21
16
61
48
46
14
22
12
35
56
27
40
69
25
67
36
51
13
64
41
42
23
37
52
62
24
17
66
32
50
26
7
34
9
63
58
2
33
43
1

> <PUBCHEM_MMFF94_PARTIAL_CHARGES>
20
1 -0.18
12 0.27
13 0.27
14 0.3
15 0.54
16 0.09
17 -0.15
18 -0.15
19 0.18
2 -0.18
20 -0.15
21 0.18
3 -0.57
4 -0.81
41 0.15
42 0.15
43 0.15
5 -0.66
6 0.27
7 0.3

> <PUBCHEM_EFFECTIVE_ROTOR_COUNT>
5.2

> <PUBCHEM_PHARMACOPHORE_FEATURES>
4
1 3 acceptor
1 4 cation
6 16 17 18 19 20 21 rings
6 6 7 8 9 10 11 rings

> <PUBCHEM_HEAVY_ATOM_COUNT>
21

> <PUBCHEM_ATOM_DEF_STEREO_COUNT>
0

> <PUBCHEM_ATOM_UDEF_STEREO_COUNT>
2

> <PUBCHEM_BOND_DEF_STEREO_COUNT>
0

> <PUBCHEM_BOND_UDEF_STEREO_COUNT>
0

> <PUBCHEM_ISOTOPIC_ATOM_COUNT>
0

> <PUBCHEM_COMPONENT_COUNT>
1

> <PUBCHEM_CACTVS_TAUTO_COUNT>
1

> <PUBCHEM_CONFORMER_ID>
00CEAA4F00000003

> <PUBCHEM_MMFF94_ENERGY>
63.7028

> <PUBCHEM_FEATURE_SELFOVERLAP>
20.297

> <PUBCHEM_SHAPE_FINGERPRINT>
10366900 7 16559028264329081330
10616163 171 18339928211320454614
10906281 52 17345771715167731089
11370993 144 18337389348945892182
11370993 70 18411982425382377999
11405975 8 18411138047744320376
11552529 35 18270113638177517951
12107183 9 17906171746367933080
12236239 1 17821731650220819409
12251169 10 18410576180064602836
12467345 10 18409729530256846738
12500047 106 18413385432305140841
12633257 1 18270404884204560570
12670546 56 18410851066624765189
12788726 201 17416972737701663617
13167823 11 18408323285102679378
13533116 47 17916584220246223938
13583140 156 18060411456539805848
13675066 3 17894639140665997545
13760787 19 18412830209208901252
14289901 80 18338237171295615872
14341114 176 18412549778025242528
14420673 8 18192436260185981786
15042514 8 18335431214038707867
15196674 1 18410293592564956674
15375358 24 17346606252908619173
15788980 27 18060139842744677100
17349148 13 17703792470415215316
17492 89 18335988665590484562
1813 80 16805329864198922236
18186145 218 16081366409808880972
19050596 39 18410575127945256204
19141452 34 18260548909291728151
200 152 18413106177873975608
20281475 54 18114181951894265262
21033648 29 16558457596546341232
21065198 57 18409731759471713912
21065199 12 18411419539900666160
21673915 165 18334856134528138130
21859007 373 17679572351307239397
23402539 116 18040430010279873536
23557571 272 18201447981676976729
23559900 14 18343021060768083698
23728640 28 18412829105629620603
26918003 58 18341894104061935520
300161 21 18412820279233917824
3545911 37 18341615901919103400
3633792 109 18189599589358516223
4073 2 18260552264368107570
4214541 1 18409730655501588553
5104073 3 18412547595675415770
5364581 5 18055899138419469256
559249 180 18337387119689307218
58051976 100 18409733979753268469
5924683 9 18200868586694543583
633830 44 16660650664980711672
67856867 119 18262801907823944852
69090 78 18408605829747935577
7097593 13 18408887347410484428
9709674 26 18341902878553910535

> <PUBCHEM_SHAPE_MULTIPOLES>
420.08
11.5
2.5
1.14
7.56
1.42
0.24
-0.15
-2.49
-1.39
-0.16
-0.28
0.1
-0.49

> <PUBCHEM_SHAPE_SELFOVERLAP>
853.598

> <PUBCHEM_SHAPE_VOLUME>
247.9

> <PUBCHEM_COORDINATE_TYPE>
2
5
10

$$$$

21595398
  -OEChem-12311612503D

 59 61  0     0  0  0  0  0  0999 V2000
   -2.1415    1.7598   -1.5554 O   0  0  0  0  0  0  0  0  0  0  0  0
    1.7333   -0.2641   -0.4783 N   0  0  0  0  0  0  0  0  0  0  0  0
   -2.5001   -0.2663   -0.3864 N   0  0  0  0  0  0  0  0  0  0  0  0
   -1.1443   -0.7297   -0.2263 C   0  0  0  0  0  0  0  0  0  0  0  0
   -0.4241   -0.7817   -1.5734 C   0  0  0  0  0  0  0  0  0  0  0  0
   -0.3716    0.1560    0.7515 C   0  0  0  0  0  0  0  0  0  0  0  0
    1.0445   -1.1745   -1.4035 C   0  0  0  0  0  0  0  0  0  0  0  0
    1.0949   -0.2689    0.8453 C   0  0  0  0  0  0  0  0  0  0  0  0
    3.1470   -0.6226   -0.3658 C   0  0  0  0  0  0  0  0  0  0  0  0
    3.9883    0.5879    0.0407 C   0  0  0  0  0  0  0  0  0  0  0  0
   -2.8281    1.0559   -0.8104 C   0  0  0  0  0  0  0  0  0  0  0  0
   -3.5744   -1.1785    0.0049 C   0  0  0  0  0  0  0  0  0  0  0  0
   -4.1747    1.5793   -0.3139 C   0  0  0  0  0  0  0  0  0  0  0  0
    5.4516    0.2371    0.1385 C   0  0  0  0  0  0  0  0  0  0  0  0
   -4.2200    3.0982   -0.1234 C   0  0  0  0  0  0  0  0  0  0  0  0
   -4.5692   -1.5184   -0.9121 C   0  0  0  0  0  0  0  0  0  0  0  0
   -3.6039   -1.7093    1.2945 C   0  0  0  0  0  0  0  0  0  0  0  0
   -3.1872    3.5910    0.8936 C   0  0  0  0  0  0  0  0  0  0  0  0
    5.9813   -0.2142    1.3475 C   0  0  0  0  0  0  0  0  0  0  0  0
    6.2756    0.3633   -0.9799 C   0  0  0  0  0  0  0  0  0  0  0  0
   -5.5935   -2.3886   -0.5394 C   0  0  0  0  0  0  0  0  0  0  0  0
   -4.6284   -2.5796    1.6671 C   0  0  0  0  0  0  0  0  0  0  0  0
   -5.6232   -2.9192    0.7501 C   0  0  0  0  0  0  0  0  0  0  0  0
   -3.2549    5.1005    1.0658 C   0  0  0  0  0  0  0  0  0  0  0  0
    7.3348   -0.5390    1.4382 C   0  0  0  0  0  0  0  0  0  0  0  0
    7.6292    0.0383   -0.8892 C   0  0  0  0  0  0  0  0  0  0  0  0
    8.1586   -0.4128    0.3199 C   0  0  0  0  0  0  0  0  0  0  0  0
   -1.1530   -1.7528    0.1737 H   0  0  0  0  0  0  0  0  0  0  0  0
   -0.9216   -1.5022   -2.2346 H   0  0  0  0  0  0  0  0  0  0  0  0
   -0.4578    0.1824   -2.0913 H   0  0  0  0  0  0  0  0  0  0  0  0
   -0.4124    1.2088    0.4444 H   0  0  0  0  0  0  0  0  0  0  0  0
   -0.8304    0.1088    1.7466 H   0  0  0  0  0  0  0  0  0  0  0  0
    1.5190   -1.1344   -2.3918 H   0  0  0  0  0  0  0  0  0  0  0  0
    1.1117   -2.2125   -1.0516 H   0  0  0  0  0  0  0  0  0  0  0  0
    1.1559   -1.2639    1.3061 H   0  0  0  0  0  0  0  0  0  0  0  0
    1.5974    0.4307    1.5219 H   0  0  0  0  0  0  0  0  0  0  0  0
    3.5232   -0.9630   -1.3407 H   0  0  0  0  0  0  0  0  0  0  0  0
    3.2977   -1.4653    0.3225 H   0  0  0  0  0  0  0  0  0  0  0  0
    3.6630    0.9970    1.0047 H   0  0  0  0  0  0  0  0  0  0  0  0
    3.8577    1.4014   -0.6856 H   0  0  0  0  0  0  0  0  0  0  0  0
   -4.9383    1.2953   -1.0462 H   0  0  0  0  0  0  0  0  0  0  0  0
   -4.4340    1.1234    0.6470 H   0  0  0  0  0  0  0  0  0  0  0  0
   -5.2266    3.3841    0.2052 H   0  0  0  0  0  0  0  0  0  0  0  0
   -4.0464    3.5932   -1.0868 H   0  0  0  0  0  0  0  0  0  0  0  0
   -4.5531   -1.1203   -1.9234 H   0  0  0  0  0  0  0  0  0  0  0  0
   -2.8431   -1.4485    2.0251 H   0  0  0  0  0  0  0  0  0  0  0  0
   -2.1727    3.3225    0.5810 H   0  0  0  0  0  0  0  0  0  0  0  0
   -3.3643    3.1096    1.8624 H   0  0  0  0  0  0  0  0  0  0  0  0
    5.3489   -0.3188    2.2252 H   0  0  0  0  0  0  0  0  0  0  0  0
    5.8744    0.7119   -1.9278 H   0  0  0  0  0  0  0  0  0  0  0  0
   -6.3668   -2.6547   -1.2540 H   0  0  0  0  0  0  0  0  0  0  0  0
   -4.6529   -2.9912    2.6719 H   0  0  0  0  0  0  0  0  0  0  0  0
   -6.4208   -3.5968    1.0403 H   0  0  0  0  0  0  0  0  0  0  0  0
   -4.2441    5.4113    1.4170 H   0  0  0  0  0  0  0  0  0  0  0  0
   -2.5143    5.4318    1.8004 H   0  0  0  0  0  0  0  0  0  0  0  0
   -3.0486    5.6126    0.1206 H   0  0  0  0  0  0  0  0  0  0  0  0
    7.7470   -0.8910    2.3794 H   0  0  0  0  0  0  0  0  0  0  0  0
    8.2708    0.1360   -1.7600 H   0  0  0  0  0  0  0  0  0  0  0  0
    9.2124   -0.6660    0.3904 H   0  0  0  0  0  0  0  0  0  0  0  0
  1 11  2  0  0  0  0
  2  7  1  0  0  0  0
  2  8  1  0  0  0  0
  2  9  1  0  0  0  0
  3  4  1  0  0  0  0
  3 11  1  0  0  0  0
  3 12  1  0  0  0  0
  4  5  1  0  0  0  0
  4  6  1  0  0  0  0
  4 28  1  0  0  0  0
  5  7  1  0  0  0  0
  5 29  1  0  0  0  0
  5 30  1  0  0  0  0
  6  8  1  0  0  0  0
  6 31  1  0  0  0  0
  6 32  1  0  0  0  0
  7 33  1  0  0  0  0
  7 34  1  0  0  0  0
  8 35  1  0  0  0  0
  8 36  1  0  0  0  0
  9 10  1  0  0  0  0
  9 37  1  0  0  0  0
  9 38  1  0  0  0  0
 10 14  1  0  0  0  0
 10 39  1  0  0  0  0
 10 40  1  0  0  0  0
 11 13  1  0  0  0  0
 12 16  2  0  0  0  0
 12 17  1  0  0  0  0
 13 15  1  0  0  0  0
 13 41  1  0  0  0  0
 13 42  1  0  0  0  0
 14 19  2  0  0  0  0
 14 20  1  0  0  0  0
 15 18  1  0  0  0  0
 15 43  1  0  0  0  0
 15 44  1  0  0  0  0
 16 21  1  0  0  0  0
 16 45  1  0  0  0  0
 17 22  2  0  0  0  0
 17 46  1  0  0  0  0
 18 24  1  0  0  0  0
 18 47  1  0  0  0  0
 18 48  1  0  0  0  0
 19 25  1  0  0  0  0
 19 49  1  0  0  0  0
 20 26  2  0  0  0  0
 20 50  1  0  0  0  0
 21 23  2  0  0  0  0
 21 51  1  0  0  0  0
 22 23  1  0  0  0  0
 22 52  1  0  0  0  0
 23 53  1  0  0  0  0
 24 54  1  0  0  0  0
 24 55  1  0  0  0  0
 24 56  1  0  0  0  0
 25 27  2  0  0  0  0
 25 57  1  0  0  0  0
 26 27  1  0  0  0  0
 26 58  1  0  0  0  0
 27 59  1  0  0  0  0
M  END
> <PUBCHEM_COMPOUND_CID>
21595398

> <PUBCHEM_CONFORMER_RMSD>
1.2

> <PUBCHEM_CONFORMER_DIVERSEORDER>
1
34
51
13
42
6
5
30
52
46
12
7
40
20
26
15
49
22
43
47
45
14
37
18
28
39
33
16
50
44
48
38
21
35
10
8
41
9
24
17
31
32
25
23
36
2
3
11
53
27
29
4
19

> <PUBCHEM_MMFF94_PARTIAL_CHARGES>
32
1 -0.57
10 0.14
11 0.57
12 0.12
13 0.06
14 -0.14
16 -0.15
17 -0.15
19 -0.15
2 -0.81
20 -0.15
21 -0.15
22 -0.15
23 -0.15
25 -0.15
26 -0.15
27 -0.15
3 -0.48
4 0.3
45 0.15
46 0.15
49 0.15
50 0.15
51 0.15
52 0.15
53 0.15
57 0.15
58 0.15
59 0.15
7 0.27
8 0.27
9 0.27

> <PUBCHEM_EFFECTIVE_ROTOR_COUNT>
10.2

> <PUBCHEM_PHARMACOPHORE_FEATURES>
6
1 1 acceptor
1 2 cation
1 24 hydrophobe
6 12 16 17 21 22 23 rings
6 14 19 20 25 26 27 rings
6 2 4 5 6 7 8 rings

> <PUBCHEM_HEAVY_ATOM_COUNT>
27

> <PUBCHEM_ATOM_DEF_STEREO_COUNT>
0

> <PUBCHEM_ATOM_UDEF_STEREO_COUNT>
0

> <PUBCHEM_BOND_DEF_STEREO_COUNT>
0

> <PUBCHEM_BOND_UDEF_STEREO_COUNT>
0

> <PUBCHEM_ISOTOPIC_ATOM_COUNT>
0

> <PUBCHEM_COMPONENT_COUNT>
1

> <PUBCHEM_CACTVS_TAUTO_COUNT>
1

> <PUBCHEM_CONFORMER_ID>
0149850600000001

> <PUBCHEM_MMFF94_ENERGY>
75.449

> <PUBCHEM_FEATURE_SELFOVERLAP>
30.446

> <PUBCHEM_SHAPE_FINGERPRINT>
10291535 26 18341894048670784025
10319688 45 18268989976445080503
10411042 1 18268146651548107351
11101153 10 18188779486174826796
11315181 36 17603867835807351423
11524674 6 18272090560354220014
11646440 116 17489591195145696666
12082328 90 18409448081967850758
12107698 1 18337391638184780688
12166972 35 18261675978094820436
12741549 16 17917156113228658067
13540713 4 17844545309073337238
13631057 29 18187642539859752051
13782708 43 18341331188674467854
14068700 675 18114746065905325063
14150022 121 18131081428734214993
14713325 29 18342460309743323257
15183329 4 17458339741816080594
15338160 23 18340773654664166577
15419008 47 17988920093573294512
1577012 14 17821729421475482988
15876981 60 18186806876388825269
16114785 44 18198915725869522697
17844677 252 18411139173426723776
17980427 23 17749117685549558854
18927931 339 18334859458827680567
20101258 96 18272085041774197601
20771845 65 17913492613536437459
21033648 29 17917695904127665944
21130935 74 18261667096513902906
21236236 1 18259703402056282771
21315759 40 17530960290091912310
21859007 373 17917132903030698296
21927370 108 17895769482085709729
23081809 10 17749392564316098294
23522609 53 17532396213644571876
23559900 14 17241888889853839119
24771293 8 12750939054727818418
249057 25 17749399186908009436
3009799 131 12252173100376515166
3418910 222 18190471630755379380
3663271 9 18113896057786415330
4073 2 18336550413295655282
4144715 1 18268156357462241162
497634 4 17894342289410845031
5104073 3 18337110047444705650
5969126 39 18342731949550543727
9896288 288 18410859832769366451

> <PUBCHEM_SHAPE_MULTIPOLES>
539.82
20.37
3.89
1.46
44.23
5.96
0.08
-5.41
3.3
-11.99
1.59
0.04
-0.29
0.11

> <PUBCHEM_SHAPE_SELFOVERLAP>
1118.798

> <PUBCHEM_SHAPE_VOLUME>
305.4

> <PUBCHEM_COORDINATE_TYPE>
2
5
10

$$$$
827322
  -OEChem-12311613073D

 38 41  0     0  0  0  0  0  0999 V2000
    1.9346    1.9619   -0.3595 S   0  0  0  0  0  0  0  0  0  0  0  0
    2.1370   -0.6795   -0.0974 N   0  0  0  0  0  0  0  0  0  0  0  0
   -0.4942   -1.8883    0.9662 N   0  0  0  0  0  0  0  0  0  0  0  0
    2.8711   -2.7398    0.2016 N   0  0  0  0  0  0  0  0  0  0  0  0
    3.7745   -2.0738   -0.5893 N   0  0  0  0  0  0  0  0  0  0  0  0
    1.3007    0.4273   -0.0182 C   0  0  0  0  0  0  0  0  0  0  0  0
   -0.0425    0.4268    0.3115 C   0  0  0  0  0  0  0  0  0  0  0  0
   -0.8868   -0.7635    0.4781 C   0  0  0  0  0  0  0  0  0  0  0  0
    1.9149   -1.8930    0.5189 C   0  0  0  0  0  0  0  0  0  0  0  0
    0.4581    2.7138    0.0489 C   0  0  0  0  0  0  0  0  0  0  0  0
   -0.5088    1.7902    0.3812 C   0  0  0  0  0  0  0  0  0  0  0  0
    0.8357   -2.0899    1.5153 C   0  0  0  0  0  0  0  0  0  0  0  0
    3.3442   -0.8411   -0.7311 C   0  0  0  0  0  0  0  0  0  0  0  0
    0.3456    4.1869   -0.0080 C   0  0  0  0  0  0  0  0  0  0  0  0
   -2.3003   -0.6759    0.0249 C   0  0  0  0  0  0  0  0  0  0  0  0
    4.0450    0.1651   -1.5557 C   0  0  0  0  0  0  0  0  0  0  0  0
    0.6878    4.8603    1.3241 C   0  0  0  0  0  0  0  0  0  0  0  0
   -2.6334    0.1610   -1.0344 C   0  0  0  0  0  0  0  0  0  0  0  0
   -3.2768   -1.4314    0.6647 C   0  0  0  0  0  0  0  0  0  0  0  0
   -3.9595    0.2434   -1.4593 C   0  0  0  0  0  0  0  0  0  0  0  0
   -4.6029   -1.3490    0.2397 C   0  0  0  0  0  0  0  0  0  0  0  0
   -4.9441   -0.5116   -0.8223 C   0  0  0  0  0  0  0  0  0  0  0  0
   -1.5146    2.0835    0.6572 H   0  0  0  0  0  0  0  0  0  0  0  0
    0.8910   -3.1167    1.8949 H   0  0  0  0  0  0  0  0  0  0  0  0
    0.9929   -1.4405    2.3854 H   0  0  0  0  0  0  0  0  0  0  0  0
    0.9905    4.6006   -0.7931 H   0  0  0  0  0  0  0  0  0  0  0  0
   -0.6798    4.4630   -0.2844 H   0  0  0  0  0  0  0  0  0  0  0  0
    4.4882    0.9558   -0.9442 H   0  0  0  0  0  0  0  0  0  0  0  0
    4.8799   -0.3141   -2.0814 H   0  0  0  0  0  0  0  0  0  0  0  0
    3.4015    0.5835   -2.3349 H   0  0  0  0  0  0  0  0  0  0  0  0
    0.0284    4.5074    2.1243 H   0  0  0  0  0  0  0  0  0  0  0  0
    0.5718    5.9453    1.2392 H   0  0  0  0  0  0  0  0  0  0  0  0
    1.7208    4.6493    1.6202 H   0  0  0  0  0  0  0  0  0  0  0  0
   -1.8929    0.7227   -1.5954 H   0  0  0  0  0  0  0  0  0  0  0  0
   -3.0369   -2.0839    1.4997 H   0  0  0  0  0  0  0  0  0  0  0  0
   -4.2238    0.8856   -2.2945 H   0  0  0  0  0  0  0  0  0  0  0  0
   -5.3702   -1.9356    0.7366 H   0  0  0  0  0  0  0  0  0  0  0  0
   -5.9762   -0.4494   -1.1548 H   0  0  0  0  0  0  0  0  0  0  0  0
  1  6  1  0  0  0  0
  1 10  1  0  0  0  0
  2  6  1  0  0  0  0
  2  9  1  0  0  0  0
  2 13  1  0  0  0  0
  3  8  2  0  0  0  0
  3 12  1  0  0  0  0
  4  5  1  0  0  0  0
  4  9  2  0  0  0  0
  5 13  2  0  0  0  0
  6  7  2  0  0  0  0
  7  8  1  0  0  0  0
  7 11  1  0  0  0  0
  8 15  1  0  0  0  0
  9 12  1  0  0  0  0
 10 11  2  0  0  0  0
 10 14  1  0  0  0  0
 11 23  1  0  0  0  0
 12 24  1  0  0  0  0
 12 25  1  0  0  0  0
 13 16  1  0  0  0  0
 14 17  1  0  0  0  0
 14 26  1  0  0  0  0
 14 27  1  0  0  0  0
 15 18  2  0  0  0  0
 15 19  1  0  0  0  0
 16 28  1  0  0  0  0
 16 29  1  0  0  0  0
 16 30  1  0  0  0  0
 17 31  1  0  0  0  0
 17 32  1  0  0  0  0
 17 33  1  0  0  0  0
 18 20  1  0  0  0  0
 18 34  1  0  0  0  0
 19 21  2  0  0  0  0
 19 35  1  0  0  0  0
 20 22  2  0  0  0  0
 20 36  1  0  0  0  0
 21 22  1  0  0  0  0
 21 37  1  0  0  0  0
 22 38  1  0  0  0  0
M  END
> <PUBCHEM_COMPOUND_CID>
827322

> <PUBCHEM_CONFORMER_RMSD>
0.6

> <PUBCHEM_CONFORMER_DIVERSEORDER>
2
4
1
3
5

> <PUBCHEM_MMFF94_PARTIAL_CHARGES>
27
1 -0.08
10 -0.14
11 -0.15
12 0.43
13 0.01
14 0.18
15 0.09
16 0.18
18 -0.15
19 -0.15
2 0.38
20 -0.15
21 -0.15
22 -0.15
23 0.15
3 -0.7
34 0.15
35 0.15
36 0.15
37 0.15
38 0.15
4 -0.34
5 -0.34
6 -0.04
7 -0.09
8 0.45
9 0.01

> <PUBCHEM_EFFECTIVE_ROTOR_COUNT>
2.2

> <PUBCHEM_PHARMACOPHORE_FEATURES>
8
1 17 hydrophobe
1 3 acceptor
3 2 4 9 cation
3 2 5 13 cation
5 1 6 7 10 11 rings
5 2 4 5 9 13 rings
6 15 18 19 20 21 22 rings
7 2 3 6 7 8 9 12 rings

> <PUBCHEM_HEAVY_ATOM_COUNT>
22

> <PUBCHEM_ATOM_DEF_STEREO_COUNT>
0

> <PUBCHEM_ATOM_UDEF_STEREO_COUNT>
0

> <PUBCHEM_BOND_DEF_STEREO_COUNT>
0

> <PUBCHEM_BOND_UDEF_STEREO_COUNT>
0

> <PUBCHEM_ISOTOPIC_ATOM_COUNT>
0

> <PUBCHEM_COMPONENT_COUNT>
1

> <PUBCHEM_CACTVS_TAUTO_COUNT>
1

> <PUBCHEM_CONFORMER_ID>
000C9FBA00000002

> <PUBCHEM_MMFF94_ENERGY>
63.9392

> <PUBCHEM_FEATURE_SELFOVERLAP>
43.178

> <PUBCHEM_SHAPE_FINGERPRINT>
10165383 225 17181973323123476689
104564 63 18051689949792864465
10906281 52 18264781015953357944
11578080 2 17559373800008396832
116883 192 17981325590597708815
12035759 4 17900819349195859188
12293681 160 18261970612766345128
12553582 1 18338528442876385914
12623949 98 17834426740435845235
12707595 3 18410004442792813975
12730499 353 18048038764241276803
12788726 201 17906725908791911993
13134695 92 18413100671588778389
13140716 1 18267298738091941433
13540713 5 17683536039797556778
13911987 19 18118147950728927020
13955234 65 18196935698189574033
14178342 30 17759228610412502602
14790565 3 17618506476222976597
14866123 147 17474385777677024299
15210252 30 17749392542061170900
15230672 131 17543349814975144308
16945 1 18339081600235605554
1813 80 17988936547661037599
18785283 64 17974292319868675553
20645477 70 18339634646590872823
20671657 53 18342460326669627383
21029758 11 18409733958579060194
221357 26 18335414656733767767
221490 88 18262805202005754219
22620623 9 17697614194820733654
23419403 2 16957825474193952474
23557571 272 18051107238932441002
23558518 356 17902525791796490834
23559900 14 18268146646235145576
238 59 17976790380411869295
25147074 1 17609785193389055714
2748010 2 17469617659476778944
283562 15 18264773147520251418
3091708 16 9067958842881334904
3298306 158 17906180903454908020
3323516 105 18261111919680841607
532947 4 18053950829574244928
6438718 38 17699560351876869709
6443956 14 18410856602853804308
7164475 11 18122627154615196454
7364860 26 18339077228096197633
81228 2 18049996693127532112
84936 182 17984424315540403049
9709674 26 18190739937303889635
9862522 239 16827838297433680320

> <PUBCHEM_SHAPE_MULTIPOLES>
436.68
7.44
4.47
1.23
7.09
6.27
0.09
-4.29
3.33
-4.12
-1.93
-0.03
0.02
0.74

> <PUBCHEM_SHAPE_SELFOVERLAP>
953.967

> <PUBCHEM_SHAPE_VOLUME>
238.7

> <PUBCHEM_COORDINATE_TYPE>
2
5
10

$$$$

3307
  -OEChem-12311613083D

 38 41  0     0  0  0  0  0  0999 V2000
   -1.3675   -1.3624   -2.3303 Cl  0  0  0  0  0  0  0  0  0  0  0  0
    1.9332    2.1379    0.0059 S   0  0  0  0  0  0  0  0  0  0  0  0
    2.2694   -0.5025    0.0501 N   0  0  0  0  0  0  0  0  0  0  0  0
   -0.2866   -1.9247    1.0296 N   0  0  0  0  0  0  0  0  0  0  0  0
    3.1082   -2.5406    0.1748 N   0  0  0  0  0  0  0  0  0  0  0  0
    3.9687   -1.7679   -0.5652 N   0  0  0  0  0  0  0  0  0  0  0  0
    1.3801    0.5507    0.2252 C   0  0  0  0  0  0  0  0  0  0  0  0
    0.0423    0.4557    0.5630 C   0  0  0  0  0  0  0  0  0  0  0  0
   -0.7400   -0.7852    0.6376 C   0  0  0  0  0  0  0  0  0  0  0  0
    2.1147   -1.7716    0.5668 C   0  0  0  0  0  0  0  0  0  0  0  0
    0.4257    2.7788    0.4846 C   0  0  0  0  0  0  0  0  0  0  0  0
   -0.4903    1.7837    0.7470 C   0  0  0  0  0  0  0  0  0  0  0  0
    1.0575   -2.1029    1.5512 C   0  0  0  0  0  0  0  0  0  0  0  0
    3.4761   -0.5511   -0.6030 C   0  0  0  0  0  0  0  0  0  0  0  0
    0.2397    4.2441    0.5488 C   0  0  0  0  0  0  0  0  0  0  0  0
   -2.1610   -0.7325    0.2030 C   0  0  0  0  0  0  0  0  0  0  0  0
    4.1169    0.5528   -1.3475 C   0  0  0  0  0  0  0  0  0  0  0  0
   -0.2332    4.8387   -0.7820 C   0  0  0  0  0  0  0  0  0  0  0  0
   -2.5339   -0.9797   -1.1156 C   0  0  0  0  0  0  0  0  0  0  0  0
   -3.1242   -0.4255    1.1607 C   0  0  0  0  0  0  0  0  0  0  0  0
   -3.8792   -0.9193   -1.4791 C   0  0  0  0  0  0  0  0  0  0  0  0
   -4.4696   -0.3650    0.7971 C   0  0  0  0  0  0  0  0  0  0  0  0
   -4.8471   -0.6118   -0.5228 C   0  0  0  0  0  0  0  0  0  0  0  0
   -1.5123    2.0014    1.0314 H   0  0  0  0  0  0  0  0  0  0  0  0
    1.1679   -3.1531    1.8453 H   0  0  0  0  0  0  0  0  0  0  0  0
    1.1919   -1.5191    2.4704 H   0  0  0  0  0  0  0  0  0  0  0  0
   -0.5023    4.4839    1.3209 H   0  0  0  0  0  0  0  0  0  0  0  0
    1.1666    4.7445    0.8553 H   0  0  0  0  0  0  0  0  0  0  0  0
    4.5270    1.3126   -0.6767 H   0  0  0  0  0  0  0  0  0  0  0  0
    4.9688    0.1606   -1.9163 H   0  0  0  0  0  0  0  0  0  0  0  0
    3.4449    1.0000   -2.0854 H   0  0  0  0  0  0  0  0  0  0  0  0
    0.5003    4.6652   -1.5764 H   0  0  0  0  0  0  0  0  0  0  0  0
   -0.3783    5.9189   -0.6818 H   0  0  0  0  0  0  0  0  0  0  0  0
   -1.1833    4.3936   -1.0964 H   0  0  0  0  0  0  0  0  0  0  0  0
   -2.8436   -0.2332    2.1930 H   0  0  0  0  0  0  0  0  0  0  0  0
   -4.1901   -1.1088   -2.5033 H   0  0  0  0  0  0  0  0  0  0  0  0
   -5.2232   -0.1262    1.5417 H   0  0  0  0  0  0  0  0  0  0  0  0
   -5.8946   -0.5647   -0.8057 H   0  0  0  0  0  0  0  0  0  0  0  0
  1 19  1  0  0  0  0
  2  7  1  0  0  0  0
  2 11  1  0  0  0  0
  3  7  1  0  0  0  0
  3 10  1  0  0  0  0
  3 14  1  0  0  0  0
  4  9  2  0  0  0  0
  4 13  1  0  0  0  0
  5  6  1  0  0  0  0
  5 10  2  0  0  0  0
  6 14  2  0  0  0  0
  7  8  2  0  0  0  0
  8  9  1  0  0  0  0
  8 12  1  0  0  0  0
  9 16  1  0  0  0  0
 10 13  1  0  0  0  0
 11 12  2  0  0  0  0
 11 15  1  0  0  0  0
 12 24  1  0  0  0  0
 13 25  1  0  0  0  0
 13 26  1  0  0  0  0
 14 17  1  0  0  0  0
 15 18  1  0  0  0  0
 15 27  1  0  0  0  0
 15 28  1  0  0  0  0
 16 19  1  0  0  0  0
 16 20  2  0  0  0  0
 17 29  1  0  0  0  0
 17 30  1  0  0  0  0
 17 31  1  0  0  0  0
 18 32  1  0  0  0  0
 18 33  1  0  0  0  0
 18 34  1  0  0  0  0
 19 21  2  0  0  0  0
 20 22  1  0  0  0  0
 20 35  1  0  0  0  0
 21 23  1  0  0  0  0
 21 36  1  0  0  0  0
 22 23  2  0  0  0  0
 22 37  1  0  0  0  0
 23 38  1  0  0  0  0
M  END
> <PUBCHEM_COMPOUND_CID>
3307

> <PUBCHEM_CONFORMER_RMSD>
0.6

> <PUBCHEM_CONFORMER_DIVERSEORDER>
1
4
5
6
7
3
2

> <PUBCHEM_MMFF94_PARTIAL_CHARGES>
27
1 -0.18
10 0.01
11 -0.14
12 -0.15
13 0.43
14 0.01
15 0.18
16 0.09
17 0.18
19 0.18
2 -0.08
20 -0.15
21 -0.15
22 -0.15
23 -0.15
24 0.15
3 0.38
35 0.15
36 0.15
37 0.15
38 0.15
4 -0.7
5 -0.34
6 -0.34
7 -0.04
8 -0.09
9 0.45

> <PUBCHEM_EFFECTIVE_ROTOR_COUNT>
2.2

> <PUBCHEM_PHARMACOPHORE_FEATURES>
8
1 18 hydrophobe
1 4 acceptor
3 3 5 10 cation
3 3 6 14 cation
5 2 7 8 11 12 rings
5 3 5 6 10 14 rings
6 16 19 20 21 22 23 rings
7 3 4 7 8 9 10 13 rings

> <PUBCHEM_HEAVY_ATOM_COUNT>
23

> <PUBCHEM_ATOM_DEF_STEREO_COUNT>
0

> <PUBCHEM_ATOM_UDEF_STEREO_COUNT>
0

> <PUBCHEM_BOND_DEF_STEREO_COUNT>
0

> <PUBCHEM_BOND_UDEF_STEREO_COUNT>
0

> <PUBCHEM_ISOTOPIC_ATOM_COUNT>
0

> <PUBCHEM_COMPONENT_COUNT>
1

> <PUBCHEM_CACTVS_TAUTO_COUNT>
1

> <PUBCHEM_CONFORMER_ID>
00000CEB00000001

> <PUBCHEM_MMFF94_ENERGY>
65.2595

> <PUBCHEM_FEATURE_SELFOVERLAP>
43.178

> <PUBCHEM_SHAPE_FINGERPRINT>
10165383 225 17177751172750420813
104564 63 18194682557876658633
10906281 52 18266466597412146544
12236239 1 17989491827304352819
12553582 1 18413109450560141666
12788726 201 18192148196480688026
13134695 92 18410570699596480501
13140716 1 17833830856007871936
13149001 5 18118979228205125946
13583140 156 18335703909975859615
13642711 20 17833584514406754108
13911987 19 18043552679537895652
15210252 30 17967813846870797996
15238133 3 17753304519023717281
1601671 61 18058736780319337169
16945 1 18337669823031770546
1813 80 18201445748362230095
18785283 64 17901677277725093001
21285901 2 17773607009424813111
21641784 216 18115891636757369076
221357 26 18335975411980162109
2255824 54 18196930191603838561
23402539 116 18341613659983332034
23419403 2 14289396553773754394
23558518 356 17901115126967820178
23559900 14 18264500645257534676
23566358 27 18051978322899002983
23598288 3 17906727003871539306
23598291 2 18059295465190924325
238 59 17761468675821348319
25 1 18262518237685701690
3323516 105 18261674891051265667
34934 24 18271526489450010210
352729 6 17405428806355571696
474 4 17979624955658531297
6287921 2 17683526508937488669
7164475 11 18194122915480760278
7471813 234 18265038168472086522
9981440 41 13625250982354316366

> <PUBCHEM_SHAPE_MULTIPOLES>
459.12
7.19
4.28
1.51
4.23
6.93
0.57
-3.9
2.08
-3.05
-0.12
0.68
-0.6
-0.49

> <PUBCHEM_SHAPE_SELFOVERLAP>
992.272

> <PUBCHEM_SHAPE_VOLUME>
254.6

> <PUBCHEM_COORDINATE_TYPE>
2
5
10

$$$$
