24257263
  -OEChem-12271618253D

 26 26  0     1  0  0  0  0  0999 V2000
    1.0569   -2.2302    0.4495 F   0  0  0  0  0  0  0  0  0  0  0  0
   -3.3313   -0.1717   -0.0619 N   0  0  0  0  0  0  0  0  0  0  0  0
   -1.9616    0.1586   -0.4670 C   0  0  1  0  0  0  0  0  0  0  0  0
   -0.9785   -0.2698    0.6389 C   0  0  0  0  0  0  0  0  0  0  0  0
    0.4551    0.0635    0.3352 C   0  0  0  0  0  0  0  0  0  0  0  0
   -1.6784   -0.5259   -1.8041 C   0  0  0  0  0  0  0  0  0  0  0  0
    1.4086   -0.9515    0.2558 C   0  0  0  0  0  0  0  0  0  0  0  0
    0.8316    1.3915    0.1331 C   0  0  0  0  0  0  0  0  0  0  0  0
   -3.8174    0.7803    0.9227 C   0  0  0  0  0  0  0  0  0  0  0  0
    2.7386   -0.6384   -0.0259 C   0  0  0  0  0  0  0  0  0  0  0  0
    2.1615    1.7043   -0.1484 C   0  0  0  0  0  0  0  0  0  0  0  0
    3.1150    0.6894   -0.2279 C   0  0  0  0  0  0  0  0  0  0  0  0
   -1.8861    1.2384   -0.6496 H   0  0  0  0  0  0  0  0  0  0  0  0
   -1.0877   -1.3470    0.8225 H   0  0  0  0  0  0  0  0  0  0  0  0
   -1.2153    0.2176    1.5923 H   0  0  0  0  0  0  0  0  0  0  0  0
   -1.7163   -1.6172   -1.7111 H   0  0  0  0  0  0  0  0  0  0  0  0
   -0.6902   -0.2554   -2.1901 H   0  0  0  0  0  0  0  0  0  0  0  0
   -2.4098   -0.2271   -2.5641 H   0  0  0  0  0  0  0  0  0  0  0  0
   -3.9456   -0.1314   -0.8754 H   0  0  0  0  0  0  0  0  0  0  0  0
    0.1043    2.1956    0.2023 H   0  0  0  0  0  0  0  0  0  0  0  0
   -3.2870    0.7088    1.8759 H   0  0  0  0  0  0  0  0  0  0  0  0
   -4.8692    0.5627    1.1369 H   0  0  0  0  0  0  0  0  0  0  0  0
   -3.7679    1.8116    0.5574 H   0  0  0  0  0  0  0  0  0  0  0  0
    3.4809   -1.4288   -0.0873 H   0  0  0  0  0  0  0  0  0  0  0  0
    2.4552    2.7383   -0.3032 H   0  0  0  0  0  0  0  0  0  0  0  0
    4.1505    0.9331   -0.4464 H   0  0  0  0  0  0  0  0  0  0  0  0
  1  7  1  0  0  0  0
  2  3  1  0  0  0  0
  2  9  1  0  0  0  0
  2 19  1  0  0  0  0
  3  4  1  0  0  0  0
  3  6  1  0  0  0  0
  3 13  1  0  0  0  0
  4  5  1  0  0  0  0
  4 14  1  0  0  0  0
  4 15  1  0  0  0  0
  5  7  1  0  0  0  0
  5  8  2  0  0  0  0
  6 16  1  0  0  0  0
  6 17  1  0  0  0  0
  6 18  1  0  0  0  0
  7 10  2  0  0  0  0
  8 11  1  0  0  0  0
  8 20  1  0  0  0  0
  9 21  1  0  0  0  0
  9 22  1  0  0  0  0
  9 23  1  0  0  0  0
 10 12  1  0  0  0  0
 10 24  1  0  0  0  0
 11 12  2  0  0  0  0
 11 25  1  0  0  0  0
 12 26  1  0  0  0  0
M  END
> <PUBCHEM_COMPOUND_CID>
24257263

> <PUBCHEM_CONFORMER_RMSD>
0.6

> <PUBCHEM_CONFORMER_DIVERSEORDER>
1
10
9
25
20
18
12
15
13
24
14
7
16
2
11
22
19
5
4
17
8
21
23
6
3

> <PUBCHEM_MMFF94_PARTIAL_CHARGES>
16
1 -0.19
10 -0.15
11 -0.15
12 -0.15
19 0.36
2 -0.9
20 0.15
24 0.15
25 0.15
26 0.15
3 0.27
4 0.14
5 -0.14
7 0.19
8 -0.15
9 0.27

> <PUBCHEM_EFFECTIVE_ROTOR_COUNT>
3

> <PUBCHEM_PHARMACOPHORE_FEATURES>
3
1 2 cation
1 2 donor
6 5 7 8 10 11 12 rings

> <PUBCHEM_HEAVY_ATOM_COUNT>
12

> <PUBCHEM_ATOM_DEF_STEREO_COUNT>
0

> <PUBCHEM_ATOM_UDEF_STEREO_COUNT>
1

> <PUBCHEM_BOND_DEF_STEREO_COUNT>
0

> <PUBCHEM_BOND_UDEF_STEREO_COUNT>
0

> <PUBCHEM_ISOTOPIC_ATOM_COUNT>
0

> <PUBCHEM_COMPONENT_COUNT>
1

> <PUBCHEM_CACTVS_TAUTO_COUNT>
1

> <PUBCHEM_CONFORMER_ID>
017222EF00000001

> <PUBCHEM_MMFF94_ENERGY>
19.3604

> <PUBCHEM_FEATURE_SELFOVERLAP>
15.223

> <PUBCHEM_SHAPE_FINGERPRINT>
1 1 18333728048445713126
10857977 72 15864074278045748293
10980938 120 18410293588348785865
11031198 65 18334021596221915660
11471102 20 18335417950282814221
12932764 1 17917982889162321121
14325111 11 18337392754712604369
15279307 12 18201714076628943431
15775835 57 18272936063035364621
16945 1 18334845113462195196
17844478 74 17530966865117188965
18186145 218 18409728486738172612
19422 9 18202283623704527959
20201158 50 18187082836479294987
20645476 183 17703792547993457759
20645477 70 18263353716684642583
20871998 22 17981327790053824998
22802520 49 17678721367676683404
23235685 24 18260263092071575632
23402539 116 15502371270334362835
23402655 69 18411132524643282925
23598291 2 18201714042179105655
25 1 18335423473700284752
2748010 2 18048325723796174874
528886 8 18409728495333271560
53748568 43 18130784585778754903
77492 1 17988922275526897529
81228 2 16532820034533959346
8272917 22 18269282257801477083
9939556 21 17845931939264746381

> <PUBCHEM_SHAPE_MULTIPOLES>
234.7
5.52
1.55
1.05
3.26
0.16
-0.4
-1.18
0.36
-0.93
0.15
0.72
0.17
-0.63

> <PUBCHEM_SHAPE_SELFOVERLAP>
473.452

> <PUBCHEM_SHAPE_VOLUME>
139

> <PUBCHEM_COORDINATE_TYPE>
2
5
10

$$$$
115808
  -OEChem-12271618283D

 26 26  0     1  0  0  0  0  0999 V2000
   -3.4933    0.6131   -0.0153 N   0  0  0  0  0  0  0  0  0  0  0  0
   -1.2327    0.1012   -0.8272 C   0  0  0  0  0  0  0  0  0  0  0  0
   -2.2361   -0.0566    0.3309 C   0  0  2  0  0  0  0  0  0  0  0  0
    0.2014   -0.0719   -0.4121 C   0  0  0  0  0  0  0  0  0  0  0  0
    0.9533    1.0185    0.0092 C   0  0  0  0  0  0  0  0  0  0  0  0
   -2.5436   -1.5199    0.6491 C   0  0  0  0  0  0  0  0  0  0  0  0
    0.7607   -1.3440   -0.4580 C   0  0  0  0  0  0  0  0  0  0  0  0
    2.2827    0.8348    0.3900 C   0  0  0  0  0  0  0  0  0  0  0  0
    0.3668    2.3909    0.0637 C   0  0  0  0  0  0  0  0  0  0  0  0
    2.0899   -1.5278   -0.0772 C   0  0  0  0  0  0  0  0  0  0  0  0
    2.8509   -0.4384    0.3467 C   0  0  0  0  0  0  0  0  0  0  0  0
   -1.3534    1.0788   -1.3109 H   0  0  0  0  0  0  0  0  0  0  0  0
   -1.4704   -0.6144   -1.6274 H   0  0  0  0  0  0  0  0  0  0  0  0
   -1.8450    0.4202    1.2376 H   0  0  0  0  0  0  0  0  0  0  0  0
   -1.6496   -2.0432    1.0015 H   0  0  0  0  0  0  0  0  0  0  0  0
   -2.9253   -2.0522   -0.2294 H   0  0  0  0  0  0  0  0  0  0  0  0
   -3.2950   -1.5997    1.4431 H   0  0  0  0  0  0  0  0  0  0  0  0
    0.1813   -2.2009   -0.7901 H   0  0  0  0  0  0  0  0  0  0  0  0
   -3.3221    1.6071   -0.1628 H   0  0  0  0  0  0  0  0  0  0  0  0
   -4.1438    0.5485    0.7668 H   0  0  0  0  0  0  0  0  0  0  0  0
    2.8902    1.6727    0.7216 H   0  0  0  0  0  0  0  0  0  0  0  0
   -0.5561    2.4069    0.6513 H   0  0  0  0  0  0  0  0  0  0  0  0
    1.0521    3.1006    0.5411 H   0  0  0  0  0  0  0  0  0  0  0  0
    0.1675    2.7647   -0.9458 H   0  0  0  0  0  0  0  0  0  0  0  0
    2.5328   -2.5188   -0.1119 H   0  0  0  0  0  0  0  0  0  0  0  0
    3.8860   -0.5816    0.6426 H   0  0  0  0  0  0  0  0  0  0  0  0
  1  3  1  0  0  0  0
  1 19  1  0  0  0  0
  1 20  1  0  0  0  0
  2  3  1  0  0  0  0
  2  4  1  0  0  0  0
  2 12  1  0  0  0  0
  2 13  1  0  0  0  0
  3  6  1  0  0  0  0
  3 14  1  0  0  0  0
  4  5  1  0  0  0  0
  4  7  2  0  0  0  0
  5  8  2  0  0  0  0
  5  9  1  0  0  0  0
  6 15  1  0  0  0  0
  6 16  1  0  0  0  0
  6 17  1  0  0  0  0
  7 10  1  0  0  0  0
  7 18  1  0  0  0  0
  8 11  1  0  0  0  0
  8 21  1  0  0  0  0
  9 22  1  0  0  0  0
  9 23  1  0  0  0  0
  9 24  1  0  0  0  0
 10 11  2  0  0  0  0
 10 25  1  0  0  0  0
 11 26  1  0  0  0  0
M  END
> <PUBCHEM_COMPOUND_CID>
115808

> <PUBCHEM_CONFORMER_RMSD>
0.4

> <PUBCHEM_CONFORMER_DIVERSEORDER>
1
9
8
11
4
12
7
6
2
5
3
10

> <PUBCHEM_MMFF94_PARTIAL_CHARGES>
16
1 -0.99
10 -0.15
11 -0.15
18 0.15
19 0.36
2 0.14
20 0.36
21 0.15
25 0.15
26 0.15
3 0.27
4 -0.14
5 -0.14
7 -0.15
8 -0.15
9 0.14

> <PUBCHEM_EFFECTIVE_ROTOR_COUNT>
2

> <PUBCHEM_PHARMACOPHORE_FEATURES>
3
1 1 cation
1 1 donor
6 4 5 7 8 10 11 rings

> <PUBCHEM_HEAVY_ATOM_COUNT>
11

> <PUBCHEM_ATOM_DEF_STEREO_COUNT>
0

> <PUBCHEM_ATOM_UDEF_STEREO_COUNT>
1

> <PUBCHEM_BOND_DEF_STEREO_COUNT>
0

> <PUBCHEM_BOND_UDEF_STEREO_COUNT>
0

> <PUBCHEM_ISOTOPIC_ATOM_COUNT>
0

> <PUBCHEM_COMPONENT_COUNT>
1

> <PUBCHEM_CACTVS_TAUTO_COUNT>
1

> <PUBCHEM_CONFORMER_ID>
0001C46000000001

> <PUBCHEM_MMFF94_ENERGY>
19.6998

> <PUBCHEM_FEATURE_SELFOVERLAP>
15.223

> <PUBCHEM_SHAPE_FINGERPRINT>
10130415 120 18335416816311137025
10219947 1 18343581832693018478
10857977 72 18336256907735363778
11471102 22 18338243772380645226
12251169 10 18338803415626005755
12382932 28 18411135827029827083
12696612 119 18339646757844382551
14648413 74 18335420235427247697
15775835 57 17346313842834318697
161256 15 18129102225888238804
16945 1 18341323423188369884
17841504 4 18337674229826328785
17990270 104 18336267941406165891
20201158 50 18335700511960188291
20871998 22 18056484945988099726
21501502 16 18262241148118519975
2748010 2 17911505511944949958
29004967 10 18410291402310587490
8809292 202 18261116227185022986

> <PUBCHEM_SHAPE_MULTIPOLES>
221.39
4.47
1.95
0.78
2.39
0.57
0.03
-0.8
-0.82
-0.39
-0.1
0.11
-0.07
0.34

> <PUBCHEM_SHAPE_SELFOVERLAP>
447.265

> <PUBCHEM_SHAPE_VOLUME>
130.1

> <PUBCHEM_COORDINATE_TYPE>
2
5
10

$$$$
24257263
  -OEChem-12271618253D

 26 26  0     1  0  0  0  0  0999 V2000
    1.0569   -2.2302    0.4495 F   0  0  0  0  0  0  0  0  0  0  0  0
   -3.3313   -0.1717   -0.0619 N   0  0  0  0  0  0  0  0  0  0  0  0
   -1.9616    0.1586   -0.4670 C   0  0  1  0  0  0  0  0  0  0  0  0
   -0.9785   -0.2698    0.6389 C   0  0  0  0  0  0  0  0  0  0  0  0
    0.4551    0.0635    0.3352 C   0  0  0  0  0  0  0  0  0  0  0  0
   -1.6784   -0.5259   -1.8041 C   0  0  0  0  0  0  0  0  0  0  0  0
    1.4086   -0.9515    0.2558 C   0  0  0  0  0  0  0  0  0  0  0  0
    0.8316    1.3915    0.1331 C   0  0  0  0  0  0  0  0  0  0  0  0
   -3.8174    0.7803    0.9227 C   0  0  0  0  0  0  0  0  0  0  0  0
    2.7386   -0.6384   -0.0259 C   0  0  0  0  0  0  0  0  0  0  0  0
    2.1615    1.7043   -0.1484 C   0  0  0  0  0  0  0  0  0  0  0  0
    3.1150    0.6894   -0.2279 C   0  0  0  0  0  0  0  0  0  0  0  0
   -1.8861    1.2384   -0.6496 H   0  0  0  0  0  0  0  0  0  0  0  0
   -1.0877   -1.3470    0.8225 H   0  0  0  0  0  0  0  0  0  0  0  0
   -1.2153    0.2176    1.5923 H   0  0  0  0  0  0  0  0  0  0  0  0
   -1.7163   -1.6172   -1.7111 H   0  0  0  0  0  0  0  0  0  0  0  0
   -0.6902   -0.2554   -2.1901 H   0  0  0  0  0  0  0  0  0  0  0  0
   -2.4098   -0.2271   -2.5641 H   0  0  0  0  0  0  0  0  0  0  0  0
   -3.9456   -0.1314   -0.8754 H   0  0  0  0  0  0  0  0  0  0  0  0
    0.1043    2.1956    0.2023 H   0  0  0  0  0  0  0  0  0  0  0  0
   -3.2870    0.7088    1.8759 H   0  0  0  0  0  0  0  0  0  0  0  0
   -4.8692    0.5627    1.1369 H   0  0  0  0  0  0  0  0  0  0  0  0
   -3.7679    1.8116    0.5574 H   0  0  0  0  0  0  0  0  0  0  0  0
    3.4809   -1.4288   -0.0873 H   0  0  0  0  0  0  0  0  0  0  0  0
    2.4552    2.7383   -0.3032 H   0  0  0  0  0  0  0  0  0  0  0  0
    4.1505    0.9331   -0.4464 H   0  0  0  0  0  0  0  0  0  0  0  0
  1  7  1  0  0  0  0
  2  3  1  0  0  0  0
  2  9  1  0  0  0  0
  2 19  1  0  0  0  0
  3  4  1  0  0  0  0
  3  6  1  0  0  0  0
  3 13  1  0  0  0  0
  4  5  1  0  0  0  0
  4 14  1  0  0  0  0
  4 15  1  0  0  0  0
  5  7  1  0  0  0  0
  5  8  2  0  0  0  0
  6 16  1  0  0  0  0
  6 17  1  0  0  0  0
  6 18  1  0  0  0  0
  7 10  2  0  0  0  0
  8 11  1  0  0  0  0
  8 20  1  0  0  0  0
  9 21  1  0  0  0  0
  9 22  1  0  0  0  0
  9 23  1  0  0  0  0
 10 12  1  0  0  0  0
 10 24  1  0  0  0  0
 11 12  2  0  0  0  0
 11 25  1  0  0  0  0
 12 26  1  0  0  0  0
M  END
> <PUBCHEM_COMPOUND_CID>
24257263

> <PUBCHEM_CONFORMER_RMSD>
0.6

> <PUBCHEM_CONFORMER_DIVERSEORDER>
1
10
9
25
20
18
12
15
13
24
14
7
16
2
11
22
19
5
4
17
8
21
23
6
3

> <PUBCHEM_MMFF94_PARTIAL_CHARGES>
16
1 -0.19
10 -0.15
11 -0.15
12 -0.15
19 0.36
2 -0.9
20 0.15
24 0.15
25 0.15
26 0.15
3 0.27
4 0.14
5 -0.14
7 0.19
8 -0.15
9 0.27

> <PUBCHEM_EFFECTIVE_ROTOR_COUNT>
3

> <PUBCHEM_PHARMACOPHORE_FEATURES>
3
1 2 cation
1 2 donor
6 5 7 8 10 11 12 rings

> <PUBCHEM_HEAVY_ATOM_COUNT>
12

> <PUBCHEM_ATOM_DEF_STEREO_COUNT>
0

> <PUBCHEM_ATOM_UDEF_STEREO_COUNT>
1

> <PUBCHEM_BOND_DEF_STEREO_COUNT>
0

> <PUBCHEM_BOND_UDEF_STEREO_COUNT>
0

> <PUBCHEM_ISOTOPIC_ATOM_COUNT>
0

> <PUBCHEM_COMPONENT_COUNT>
1

> <PUBCHEM_CACTVS_TAUTO_COUNT>
1

> <PUBCHEM_CONFORMER_ID>
017222EF00000001

> <PUBCHEM_MMFF94_ENERGY>
19.3604

> <PUBCHEM_FEATURE_SELFOVERLAP>
15.223

> <PUBCHEM_SHAPE_FINGERPRINT>
1 1 18333728048445713126
10857977 72 15864074278045748293
10980938 120 18410293588348785865
11031198 65 18334021596221915660
11471102 20 18335417950282814221
12932764 1 17917982889162321121
14325111 11 18337392754712604369
15279307 12 18201714076628943431
15775835 57 18272936063035364621
16945 1 18334845113462195196
17844478 74 17530966865117188965
18186145 218 18409728486738172612
19422 9 18202283623704527959
20201158 50 18187082836479294987
20645476 183 17703792547993457759
20645477 70 18263353716684642583
20871998 22 17981327790053824998
22802520 49 17678721367676683404
23235685 24 18260263092071575632
23402539 116 15502371270334362835
23402655 69 18411132524643282925
23598291 2 18201714042179105655
25 1 18335423473700284752
2748010 2 18048325723796174874
528886 8 18409728495333271560
53748568 43 18130784585778754903
77492 1 17988922275526897529
81228 2 16532820034533959346
8272917 22 18269282257801477083
9939556 21 17845931939264746381

> <PUBCHEM_SHAPE_MULTIPOLES>
234.7
5.52
1.55
1.05
3.26
0.16
-0.4
-1.18
0.36
-0.93
0.15
0.72
0.17
-0.63

> <PUBCHEM_SHAPE_SELFOVERLAP>
473.452

> <PUBCHEM_SHAPE_VOLUME>
139

> <PUBCHEM_COORDINATE_TYPE>
2
5
10

$$$$
115808
  -OEChem-12271618283D

 26 26  0     1  0  0  0  0  0999 V2000
   -3.4933    0.6131   -0.0153 N   0  0  0  0  0  0  0  0  0  0  0  0
   -1.2327    0.1012   -0.8272 C   0  0  0  0  0  0  0  0  0  0  0  0
   -2.2361   -0.0566    0.3309 C   0  0  2  0  0  0  0  0  0  0  0  0
    0.2014   -0.0719   -0.4121 C   0  0  0  0  0  0  0  0  0  0  0  0
    0.9533    1.0185    0.0092 C   0  0  0  0  0  0  0  0  0  0  0  0
   -2.5436   -1.5199    0.6491 C   0  0  0  0  0  0  0  0  0  0  0  0
    0.7607   -1.3440   -0.4580 C   0  0  0  0  0  0  0  0  0  0  0  0
    2.2827    0.8348    0.3900 C   0  0  0  0  0  0  0  0  0  0  0  0
    0.3668    2.3909    0.0637 C   0  0  0  0  0  0  0  0  0  0  0  0
    2.0899   -1.5278   -0.0772 C   0  0  0  0  0  0  0  0  0  0  0  0
    2.8509   -0.4384    0.3467 C   0  0  0  0  0  0  0  0  0  0  0  0
   -1.3534    1.0788   -1.3109 H   0  0  0  0  0  0  0  0  0  0  0  0
   -1.4704   -0.6144   -1.6274 H   0  0  0  0  0  0  0  0  0  0  0  0
   -1.8450    0.4202    1.2376 H   0  0  0  0  0  0  0  0  0  0  0  0
   -1.6496   -2.0432    1.0015 H   0  0  0  0  0  0  0  0  0  0  0  0
   -2.9253   -2.0522   -0.2294 H   0  0  0  0  0  0  0  0  0  0  0  0
   -3.2950   -1.5997    1.4431 H   0  0  0  0  0  0  0  0  0  0  0  0
    0.1813   -2.2009   -0.7901 H   0  0  0  0  0  0  0  0  0  0  0  0
   -3.3221    1.6071   -0.1628 H   0  0  0  0  0  0  0  0  0  0  0  0
   -4.1438    0.5485    0.7668 H   0  0  0  0  0  0  0  0  0  0  0  0
    2.8902    1.6727    0.7216 H   0  0  0  0  0  0  0  0  0  0  0  0
   -0.5561    2.4069    0.6513 H   0  0  0  0  0  0  0  0  0  0  0  0
    1.0521    3.1006    0.5411 H   0  0  0  0  0  0  0  0  0  0  0  0
    0.1675    2.7647   -0.9458 H   0  0  0  0  0  0  0  0  0  0  0  0
    2.5328   -2.5188   -0.1119 H   0  0  0  0  0  0  0  0  0  0  0  0
    3.8860   -0.5816    0.6426 H   0  0  0  0  0  0  0  0  0  0  0  0
  1  3  1  0  0  0  0
  1 19  1  0  0  0  0
  1 20  1  0  0  0  0
  2  3  1  0  0  0  0
  2  4  1  0  0  0  0
  2 12  1  0  0  0  0
  2 13  1  0  0  0  0
  3  6  1  0  0  0  0
  3 14  1  0  0  0  0
  4  5  1  0  0  0  0
  4  7  2  0  0  0  0
  5  8  2  0  0  0  0
  5  9  1  0  0  0  0
  6 15  1  0  0  0  0
  6 16  1  0  0  0  0
  6 17  1  0  0  0  0
  7 10  1  0  0  0  0
  7 18  1  0  0  0  0
  8 11  1  0  0  0  0
  8 21  1  0  0  0  0
  9 22  1  0  0  0  0
  9 23  1  0  0  0  0
  9 24  1  0  0  0  0
 10 11  2  0  0  0  0
 10 25  1  0  0  0  0
 11 26  1  0  0  0  0
M  END
> <PUBCHEM_COMPOUND_CID>
115808

> <PUBCHEM_CONFORMER_RMSD>
0.4

> <PUBCHEM_CONFORMER_DIVERSEORDER>
1
9
8
11
4
12
7
6
2
5
3
10

> <PUBCHEM_MMFF94_PARTIAL_CHARGES>
16
1 -0.99
10 -0.15
11 -0.15
18 0.15
19 0.36
2 0.14
20 0.36
21 0.15
25 0.15
26 0.15
3 0.27
4 -0.14
5 -0.14
7 -0.15
8 -0.15
9 0.14

> <PUBCHEM_EFFECTIVE_ROTOR_COUNT>
2

> <PUBCHEM_PHARMACOPHORE_FEATURES>
3
1 1 cation
1 1 donor
6 4 5 7 8 10 11 rings

> <PUBCHEM_HEAVY_ATOM_COUNT>
11

> <PUBCHEM_ATOM_DEF_STEREO_COUNT>
0

> <PUBCHEM_ATOM_UDEF_STEREO_COUNT>
1

> <PUBCHEM_BOND_DEF_STEREO_COUNT>
0

> <PUBCHEM_BOND_UDEF_STEREO_COUNT>
0

> <PUBCHEM_ISOTOPIC_ATOM_COUNT>
0

> <PUBCHEM_COMPONENT_COUNT>
1

> <PUBCHEM_CACTVS_TAUTO_COUNT>
1

> <PUBCHEM_CONFORMER_ID>
0001C46000000001

> <PUBCHEM_MMFF94_ENERGY>
19.6998

> <PUBCHEM_FEATURE_SELFOVERLAP>
15.223

> <PUBCHEM_SHAPE_FINGERPRINT>
10130415 120 18335416816311137025
10219947 1 18343581832693018478
10857977 72 18336256907735363778
11471102 22 18338243772380645226
12251169 10 18338803415626005755
12382932 28 18411135827029827083
12696612 119 18339646757844382551
14648413 74 18335420235427247697
15775835 57 17346313842834318697
161256 15 18129102225888238804
16945 1 18341323423188369884
17841504 4 18337674229826328785
17990270 104 18336267941406165891
20201158 50 18335700511960188291
20871998 22 18056484945988099726
21501502 16 18262241148118519975
2748010 2 17911505511944949958
29004967 10 18410291402310587490
8809292 202 18261116227185022986

> <PUBCHEM_SHAPE_MULTIPOLES>
221.39
4.47
1.95
0.78
2.39
0.57
0.03
-0.8
-0.82
-0.39
-0.1
0.11
-0.07
0.34

> <PUBCHEM_SHAPE_SELFOVERLAP>
447.265

> <PUBCHEM_SHAPE_VOLUME>
130.1

> <PUBCHEM_COORDINATE_TYPE>
2
5
10

$$$$
24257263
  -OEChem-122716182102107923
  -OEChem-12271619382D

 41 42  0     1  0  0  0  0  0999 V2000
    2.0000    0.4806    0.0000 O   0  0  0  0  0  0  0  0  0  0  0  0
    3.7320    1.4806    0.0000 N   0  0  0  0  0  0  0  0  0  0  0  0
    3.7320    0.4806    0.0000 C   0  0  3  0  0  0  0  0  0  0  0  0
    4.5411    2.0684    0.0000 C   0  0  0  0  0  0  0  0  0  0  0  0
    2.9230    2.0684    0.0000 C   0  0  0  0  0  0  0  0  0  0  0  0
    4.2320    3.0194    0.0000 C   0  0  0  0  0  0  0  0  0  0  0  0
    3.2320    3.0194    0.0000 C   0  0  0  0  0  0  0  0  0  0  0  0
    4.5981   -0.0194    0.0000 C   0  0  0  0  0  0  0  0  0  0  0  0
    5.4641    0.4806    0.0000 C   0  0  0  0  0  0  0  0  0  0  0  0
    2.8660   -0.0194    0.0000 C   0  0  0  0  0  0  0  0  0  0  0  0
    6.3301   -0.0194    0.0000 C   0  0  0  0  0  0  0  0  0  0  0  0
    2.8660   -1.0194    0.0000 C   0  0  0  0  0  0  0  0  0  0  0  0
    7.1962    0.4806    0.0000 C   0  0  0  0  0  0  0  0  0  0  0  0
    2.0000   -1.5194    0.0000 C   0  0  0  0  0  0  0  0  0  0  0  0
    3.7320   -1.5194    0.0000 C   0  0  0  0  0  0  0  0  0  0  0  0
    2.0000   -2.5194    0.0000 C   0  0  0  0  0  0  0  0  0  0  0  0
    3.7320   -2.5194    0.0000 C   0  0  0  0  0  0  0  0  0  0  0  0
    2.8660   -3.0194    0.0000 C   0  0  0  0  0  0  0  0  0  0  0  0
    4.2690    0.7906    0.0000 H   0  0  0  0  0  0  0  0  0  0  0  0
    2.3566    2.3205    0.0000 H   0  0  0  0  0  0  0  0  0  0  0  0
    2.6130    1.5314    0.0000 H   0  0  0  0  0  0  0  0  0  0  0  0
    4.8511    1.5314    0.0000 H   0  0  0  0  0  0  0  0  0  0  0  0
    5.1075    2.3205    0.0000 H   0  0  0  0  0  0  0  0  0  0  0  0
    3.2969    3.6360    0.0000 H   0  0  0  0  0  0  0  0  0  0  0  0
    4.8385    3.1483    0.0000 H   0  0  0  0  0  0  0  0  0  0  0  0
    4.1672    3.6360    0.0000 H   0  0  0  0  0  0  0  0  0  0  0  0
    2.6256    3.1483    0.0000 H   0  0  0  0  0  0  0  0  0  0  0  0
    4.1996   -0.4944    0.0000 H   0  0  0  0  0  0  0  0  0  0  0  0
    4.9966   -0.4944    0.0000 H   0  0  0  0  0  0  0  0  0  0  0  0
    5.8626    0.9555    0.0000 H   0  0  0  0  0  0  0  0  0  0  0  0
    5.0656    0.9555    0.0000 H   0  0  0  0  0  0  0  0  0  0  0  0
    5.9316   -0.4944    0.0000 H   0  0  0  0  0  0  0  0  0  0  0  0
    6.7287   -0.4944    0.0000 H   0  0  0  0  0  0  0  0  0  0  0  0
    7.5062   -0.0564    0.0000 H   0  0  0  0  0  0  0  0  0  0  0  0
    7.7331    0.7906    0.0000 H   0  0  0  0  0  0  0  0  0  0  0  0
    6.8862    1.0175    0.0000 H   0  0  0  0  0  0  0  0  0  0  0  0
    1.4631   -1.2094    0.0000 H   0  0  0  0  0  0  0  0  0  0  0  0
    4.2690   -1.2094    0.0000 H   0  0  0  0  0  0  0  0  0  0  0  0
    1.4631   -2.8294    0.0000 H   0  0  0  0  0  0  0  0  0  0  0  0
    4.2690   -2.8294    0.0000 H   0  0  0  0  0  0  0  0  0  0  0  0
    2.8660   -3.6394    0.0000 H   0  0  0  0  0  0  0  0  0  0  0  0
  1 10  2  0  0  0  0
  2  3  1  0  0  0  0
  2  4  1  0  0  0  0
  2  5  1  0  0  0  0
  3  8  1  0  0  0  0
  3 10  1  0  0  0  0
  3 19  1  0  0  0  0
  4  6  1  0  0  0  0
  4 22  1  0  0  0  0
  4 23  1  0  0  0  0
  5  7  1  0  0  0  0
  5 20  1  0  0  0  0
  5 21  1  0  0  0  0
  6  7  1  0  0  0  0
  6 25  1  0  0  0  0
  6 26  1  0  0  0  0
  7 24  1  0  0  0  0
  7 27  1  0  0  0  0
  8  9  1  0  0  0  0
  8 28  1  0  0  0  0
  8 29  1  0  0  0  0
  9 11  1  0  0  0  0
  9 30  1  0  0  0  0
  9 31  1  0  0  0  0
 10 12  1  0  0  0  0
 11 13  1  0  0  0  0
 11 32  1  0  0  0  0
 11 33  1  0  0  0  0
 12 14  2  0  0  0  0
 12 15  1  0  0  0  0
 13 34  1  0  0  0  0
 13 35  1  0  0  0  0
 13 36  1  0  0  0  0
 14 16  1  0  0  0  0
 14 37  1  0  0  0  0
 15 17  2  0  0  0  0
 15 38  1  0  0  0  0
 16 18  2  0  0  0  0
 16 39  1  0  0  0  0
 17 18  1  0  0  0  0
 17 40  1  0  0  0  0
 18 41  1  0  0  0  0
M  END
> <PUBCHEM_COMPOUND_CID>
102107923

> <PUBCHEM_COMPOUND_CANONICALIZED>
1

> <PUBCHEM_CACTVS_COMPLEXITY>
252

> <PUBCHEM_CACTVS_HBOND_ACCEPTOR>
2

> <PUBCHEM_CACTVS_HBOND_DONOR>
0

> <PUBCHEM_CACTVS_ROTATABLE_BOND>
6

> <PUBCHEM_CACTVS_SUBSKEYS>
AAADceB6IAAAAAAAAAAAAAAAAAAAAWAAAAAwAAAAAAAAAAABAAAAHgAAAAAADCzBmAQyAIMAAACIAqBSAAACAAAkAAAIiAGIAMgIIDKAlTGEIQAggACIiYcYiMCOAAAAAAAAAAAAAAAAAAAAAAAAAAAAAA==

> <PUBCHEM_IUPAC_OPENEYE_NAME>
1-phenyl-2-pyrrolidin-1-yl-hexan-1-one

> <PUBCHEM_IUPAC_CAS_NAME>
1-phenyl-2-(1-pyrrolidinyl)-1-hexanone

> <PUBCHEM_IUPAC_NAME>
1-phenyl-2-pyrrolidin-1-ylhexan-1-one

> <PUBCHEM_IUPAC_SYSTEMATIC_NAME>
1-phenyl-2-pyrrolidin-1-yl-hexan-1-one

> <PUBCHEM_IUPAC_TRADITIONAL_NAME>
1-phenyl-2-pyrrolidino-hexan-1-one

> <PUBCHEM_IUPAC_INCHI>
InChI=1S/C16H23NO/c1-2-3-11-15(17-12-7-8-13-17)16(18)14-9-5-4-6-10-14/h4-6,9-10,15H,2-3,7-8,11-13H2,1H3

> <PUBCHEM_IUPAC_INCHIKEY>
KYIJLDDXQWBNGX-UHFFFAOYSA-N

> <PUBCHEM_XLOGP3_AA>
4

> <PUBCHEM_EXACT_MASS>
245.178

> <PUBCHEM_MOLECULAR_FORMULA>
C16H23NO

> <PUBCHEM_MOLECULAR_WEIGHT>
245.366

> <PUBCHEM_OPENEYE_CAN_SMILES>
CCCCC(C(=O)C1=CC=CC=C1)N2CCCC2

> <PUBCHEM_OPENEYE_ISO_SMILES>
CCCCC(C(=O)C1=CC=CC=C1)N2CCCC2

> <PUBCHEM_CACTVS_TPSA>
20.3

> <PUBCHEM_MONOISOTOPIC_WEIGHT>
245.178

> <PUBCHEM_TOTAL_CHARGE>
0

> <PUBCHEM_HEAVY_ATOM_COUNT>
18

> <PUBCHEM_ATOM_DEF_STEREO_COUNT>
0

> <PUBCHEM_ATOM_UDEF_STEREO_COUNT>
1

> <PUBCHEM_BOND_DEF_STEREO_COUNT>
0

> <PUBCHEM_BOND_UDEF_STEREO_COUNT>
0

> <PUBCHEM_ISOTOPIC_ATOM_COUNT>
0

> <PUBCHEM_COMPONENT_COUNT>
1

> <PUBCHEM_CACTVS_TAUTO_COUNT>
1

> <PUBCHEM_COORDINATE_TYPE>
1
5
255

> <PUBCHEM_BONDANNOTATIONS>
12  14  8
12  15  8
14  16  8
15  17  8
16  18  8
17  18  8
3  8  3

$$$$
102144588
  -OEChem-12271619072D

 42 42  0     1  0  0  0  0  0999 V2000
    3.7320    1.2500    0.0000 O   0  0  0  0  0  0  0  0  0  0  0  0
    2.8660   -2.2500    0.0000 O   0  0  0  0  0  0  0  0  0  0  0  0
    4.5981   -3.2500    0.0000 O   0  0  0  0  0  0  0  0  0  0  0  0
    5.4641    2.2500    0.0000 N   0  0  0  0  0  0  0  0  0  0  0  0
    5.4641    1.2500    0.0000 C   0  0  3  0  0  0  0  0  0  0  0  0
    6.3301    0.7500    0.0000 C   0  0  0  0  0  0  0  0  0  0  0  0
    7.1962    1.2500    0.0000 C   0  0  0  0  0  0  0  0  0  0  0  0
    4.5981    0.7500    0.0000 C   0  0  0  0  0  0  0  0  0  0  0  0
    6.3301    2.7500    0.0000 C   0  0  0  0  0  0  0  0  0  0  0  0
    4.5981   -0.2500    0.0000 C   0  0  0  0  0  0  0  0  0  0  0  0
    8.0622    0.7500    0.0000 C   0  0  0  0  0  0  0  0  0  0  0  0
    3.7320   -0.7500    0.0000 C   0  0  0  0  0  0  0  0  0  0  0  0
    5.4641   -0.7500    0.0000 C   0  0  0  0  0  0  0  0  0  0  0  0
    6.3301    3.7500    0.0000 C   0  0  0  0  0  0  0  0  0  0  0  0
    3.7320   -1.7500    0.0000 C   0  0  0  0  0  0  0  0  0  0  0  0
    5.4641   -1.7500    0.0000 C   0  0  0  0  0  0  0  0  0  0  0  0
    4.5981   -2.2500    0.0000 C   0  0  0  0  0  0  0  0  0  0  0  0
    2.0000   -1.7500    0.0000 C   0  0  0  0  0  0  0  0  0  0  0  0
    5.4641   -3.7500    0.0000 C   0  0  0  0  0  0  0  0  0  0  0  0
    6.0010    1.5600    0.0000 H   0  0  0  0  0  0  0  0  0  0  0  0
    5.9316    0.2751    0.0000 H   0  0  0  0  0  0  0  0  0  0  0  0
    6.7287    0.2751    0.0000 H   0  0  0  0  0  0  0  0  0  0  0  0
    7.5947    1.7250    0.0000 H   0  0  0  0  0  0  0  0  0  0  0  0
    6.7976    1.7250    0.0000 H   0  0  0  0  0  0  0  0  0  0  0  0
    4.9272    2.5600    0.0000 H   0  0  0  0  0  0  0  0  0  0  0  0
    6.5422    2.1674    0.0000 H   0  0  0  0  0  0  0  0  0  0  0  0
    6.9407    2.8577    0.0000 H   0  0  0  0  0  0  0  0  0  0  0  0
    7.7522    0.2131    0.0000 H   0  0  0  0  0  0  0  0  0  0  0  0
    8.5991    0.4400    0.0000 H   0  0  0  0  0  0  0  0  0  0  0  0
    8.3722    1.2869    0.0000 H   0  0  0  0  0  0  0  0  0  0  0  0
    3.1951   -0.4400    0.0000 H   0  0  0  0  0  0  0  0  0  0  0  0
    6.0010   -0.4400    0.0000 H   0  0  0  0  0  0  0  0  0  0  0  0
    6.9501    3.7500    0.0000 H   0  0  0  0  0  0  0  0  0  0  0  0
    6.3301    4.3700    0.0000 H   0  0  0  0  0  0  0  0  0  0  0  0
    5.7101    3.7500    0.0000 H   0  0  0  0  0  0  0  0  0  0  0  0
    6.0010   -2.0600    0.0000 H   0  0  0  0  0  0  0  0  0  0  0  0
    2.3100   -1.2131    0.0000 H   0  0  0  0  0  0  0  0  0  0  0  0
    1.4631   -1.4400    0.0000 H   0  0  0  0  0  0  0  0  0  0  0  0
    1.6900   -2.2869    0.0000 H   0  0  0  0  0  0  0  0  0  0  0  0
    5.1541   -4.2869    0.0000 H   0  0  0  0  0  0  0  0  0  0  0  0
    6.0010   -4.0600    0.0000 H   0  0  0  0  0  0  0  0  0  0  0  0
    5.7741   -3.2131    0.0000 H   0  0  0  0  0  0  0  0  0  0  0  0
  1  8  2  0  0  0  0
  2 15  1  0  0  0  0
  2 18  1  0  0  0  0
  3 17  1  0  0  0  0
  3 19  1  0  0  0  0
  4  5  1  0  0  0  0
  4  9  1  0  0  0  0
  4 25  1  0  0  0  0
  5  6  1  0  0  0  0
  5  8  1  0  0  0  0
  5 20  1  0  0  0  0
  6  7  1  0  0  0  0
  6 21  1  0  0  0  0
  6 22  1  0  0  0  0
  7 11  1  0  0  0  0
  7 23  1  0  0  0  0
  7 24  1  0  0  0  0
  8 10  1  0  0  0  0
  9 14  1  0  0  0  0
  9 26  1  0  0  0  0
  9 27  1  0  0  0  0
 10 12  2  0  0  0  0
 10 13  1  0  0  0  0
 11 28  1  0  0  0  0
 11 29  1  0  0  0  0
 11 30  1  0  0  0  0
 12 15  1  0  0  0  0
 12 31  1  0  0  0  0
 13 16  2  0  0  0  0
 13 32  1  0  0  0  0
 14 33  1  0  0  0  0
 14 34  1  0  0  0  0
 14 35  1  0  0  0  0
 15 17  2  0  0  0  0
 16 17  1  0  0  0  0
 16 36  1  0  0  0  0
 18 37  1  0  0  0  0
 18 38  1  0  0  0  0
 18 39  1  0  0  0  0
 19 40  1  0  0  0  0
 19 41  1  0  0  0  0
 19 42  1  0  0  0  0
M  END
> <PUBCHEM_COMPOUND_CID>
102144588

> <PUBCHEM_COMPOUND_CANONICALIZED>
1

> <PUBCHEM_CACTVS_COMPLEXITY>
270

> <PUBCHEM_CACTVS_HBOND_ACCEPTOR>
4

> <PUBCHEM_CACTVS_HBOND_DONOR>
1

> <PUBCHEM_CACTVS_ROTATABLE_BOND>
8

> <PUBCHEM_CACTVS_SUBSKEYS>
AAADceByMAAAAAAAAAAAAAAAAAAAAAAAAAAwAAAAAAAAAAABAAAAHgAQAAAADCzBmAYyBoLABACIAqBSAAACCAAkIAAIiIGOiMgNJjKEtTuEMSIk0BGKqYea3PPOIAABAAAAQABAAAIAAACAAAAAAAAAAA==

> <PUBCHEM_IUPAC_OPENEYE_NAME>
1-(3,4-dimethoxyphenyl)-2-(ethylamino)pentan-1-one

> <PUBCHEM_IUPAC_CAS_NAME>
1-(3,4-dimethoxyphenyl)-2-(ethylamino)-1-pentanone

> <PUBCHEM_IUPAC_NAME>
1-(3,4-dimethoxyphenyl)-2-(ethylamino)pentan-1-one

> <PUBCHEM_IUPAC_SYSTEMATIC_NAME>
1-(3,4-dimethoxyphenyl)-2-(ethylamino)pentan-1-one

> <PUBCHEM_IUPAC_TRADITIONAL_NAME>
1-(3,4-dimethoxyphenyl)-2-(ethylamino)pentan-1-one

> <PUBCHEM_IUPAC_INCHI>
InChI=1S/C15H23NO3/c1-5-7-12(16-6-2)15(17)11-8-9-13(18-3)14(10-11)19-4/h8-10,12,16H,5-7H2,1-4H3

> <PUBCHEM_IUPAC_INCHIKEY>
WZVCLFAACAERMB-UHFFFAOYSA-N

> <PUBCHEM_XLOGP3_AA>
2.8

> <PUBCHEM_EXACT_MASS>
265.168

> <PUBCHEM_MOLECULAR_FORMULA>
C15H23NO3

> <PUBCHEM_MOLECULAR_WEIGHT>
265.353

> <PUBCHEM_OPENEYE_CAN_SMILES>
CCCC(C(=O)C1=CC(=C(C=C1)OC)OC)NCC

> <PUBCHEM_OPENEYE_ISO_SMILES>
CCCC(C(=O)C1=CC(=C(C=C1)OC)OC)NCC

> <PUBCHEM_CACTVS_TPSA>
47.6

> <PUBCHEM_MONOISOTOPIC_WEIGHT>
265.168

> <PUBCHEM_TOTAL_CHARGE>
0

> <PUBCHEM_HEAVY_ATOM_COUNT>
19

> <PUBCHEM_ATOM_DEF_STEREO_COUNT>
0

> <PUBCHEM_ATOM_UDEF_STEREO_COUNT>
1

> <PUBCHEM_BOND_DEF_STEREO_COUNT>
0

> <PUBCHEM_BOND_UDEF_STEREO_COUNT>
0

> <PUBCHEM_ISOTOPIC_ATOM_COUNT>
0

> <PUBCHEM_COMPONENT_COUNT>
1

> <PUBCHEM_CACTVS_TAUTO_COUNT>
1

> <PUBCHEM_COORDINATE_TYPE>
1
5
255

> <PUBCHEM_BONDANNOTATIONS>
10  12  8
10  13  8
12  15  8
13  16  8
15  17  8
16  17  8
5  6  3

$$$$
119057572
  -OEChem-12271619182D

 37 37  0     1  0  0  0  0  0999 V2000
    2.0000    0.5000    0.0000 O   0  0  0  0  0  0  0  0  0  0  0  0
    3.7320    1.5000    0.0000 N   0  0  0  0  0  0  0  0  0  0  0  0
    3.7320    0.5000    0.0000 C   0  0  3  0  0  0  0  0  0  0  0  0
    4.5981    0.0000    0.0000 C   0  0  0  0  0  0  0  0  0  0  0  0
    4.5981    2.0000    0.0000 C   0  0  0  0  0  0  0  0  0  0  0  0
    5.4641    0.5000    0.0000 C   0  0  0  0  0  0  0  0  0  0  0  0
    2.8660    0.0000    0.0000 C   0  0  0  0  0  0  0  0  0  0  0  0
    4.5981    3.0000    0.0000 C   0  0  0  0  0  0  0  0  0  0  0  0
    5.4641    1.5000    0.0000 C   0  0  0  0  0  0  0  0  0  0  0  0
    2.8660   -1.0000    0.0000 C   0  0  0  0  0  0  0  0  0  0  0  0
    6.3301    0.0000    0.0000 C   0  0  0  0  0  0  0  0  0  0  0  0
    2.0000   -1.5000    0.0000 C   0  0  0  0  0  0  0  0  0  0  0  0
    3.7320   -1.5000    0.0000 C   0  0  0  0  0  0  0  0  0  0  0  0
    2.0000   -2.5000    0.0000 C   0  0  0  0  0  0  0  0  0  0  0  0
    3.7320   -2.5000    0.0000 C   0  0  0  0  0  0  0  0  0  0  0  0
    2.8660   -3.0000    0.0000 C   0  0  0  0  0  0  0  0  0  0  0  0
    4.2690    0.8100    0.0000 H   0  0  0  0  0  0  0  0  0  0  0  0
    4.1996   -0.4749    0.0000 H   0  0  0  0  0  0  0  0  0  0  0  0
    4.9966   -0.4749    0.0000 H   0  0  0  0  0  0  0  0  0  0  0  0
    4.5981    1.3800    0.0000 H   0  0  0  0  0  0  0  0  0  0  0  0
    3.1951    1.8100    0.0000 H   0  0  0  0  0  0  0  0  0  0  0  0
    5.8626    0.9749    0.0000 H   0  0  0  0  0  0  0  0  0  0  0  0
    5.0656    0.9749    0.0000 H   0  0  0  0  0  0  0  0  0  0  0  0
    5.2181    3.0000    0.0000 H   0  0  0  0  0  0  0  0  0  0  0  0
    4.5981    3.6200    0.0000 H   0  0  0  0  0  0  0  0  0  0  0  0
    3.9781    3.0000    0.0000 H   0  0  0  0  0  0  0  0  0  0  0  0
    5.1541    0.9631    0.0000 H   0  0  0  0  0  0  0  0  0  0  0  0
    6.0010    1.1900    0.0000 H   0  0  0  0  0  0  0  0  0  0  0  0
    5.7741    2.0369    0.0000 H   0  0  0  0  0  0  0  0  0  0  0  0
    6.0201   -0.5369    0.0000 H   0  0  0  0  0  0  0  0  0  0  0  0
    6.8671   -0.3100    0.0000 H   0  0  0  0  0  0  0  0  0  0  0  0
    6.6401    0.5369    0.0000 H   0  0  0  0  0  0  0  0  0  0  0  0
    1.4631   -1.1900    0.0000 H   0  0  0  0  0  0  0  0  0  0  0  0
    4.2690   -1.1900    0.0000 H   0  0  0  0  0  0  0  0  0  0  0  0
    1.4631   -2.8100    0.0000 H   0  0  0  0  0  0  0  0  0  0  0  0
    4.2690   -2.8100    0.0000 H   0  0  0  0  0  0  0  0  0  0  0  0
    2.8660   -3.6200    0.0000 H   0  0  0  0  0  0  0  0  0  0  0  0
  1  7  2  0  0  0  0
  2  3  1  0  0  0  0
  2  5  1  0  0  0  0
  2 21  1  0  0  0  0
  3  4  1  0  0  0  0
  3  7  1  0  0  0  0
  3 17  1  0  0  0  0
  4  6  1  0  0  0  0
  4 18  1  0  0  0  0
  4 19  1  0  0  0  0
  5  8  1  0  0  0  0
  5  9  1  0  0  0  0
  5 20  1  0  0  0  0
  6 11  1  0  0  0  0
  6 22  1  0  0  0  0
  6 23  1  0  0  0  0
  7 10  1  0  0  0  0
  8 24  1  0  0  0  0
  8 25  1  0  0  0  0
  8 26  1  0  0  0  0
  9 27  1  0  0  0  0
  9 28  1  0  0  0  0
  9 29  1  0  0  0  0
 10 12  2  0  0  0  0
 10 13  1  0  0  0  0
 11 30  1  0  0  0  0
 11 31  1  0  0  0  0
 11 32  1  0  0  0  0
 12 14  1  0  0  0  0
 12 33  1  0  0  0  0
 13 15  2  0  0  0  0
 13 34  1  0  0  0  0
 14 16  2  0  0  0  0
 14 35  1  0  0  0  0
 15 16  1  0  0  0  0
 15 36  1  0  0  0  0
 16 37  1  0  0  0  0
M  END
> <PUBCHEM_COMPOUND_CID>
119057572

> <PUBCHEM_COMPOUND_CANONICALIZED>
1

> <PUBCHEM_CACTVS_COMPLEXITY>
207

> <PUBCHEM_CACTVS_HBOND_ACCEPTOR>
2

> <PUBCHEM_CACTVS_HBOND_DONOR>
1

> <PUBCHEM_CACTVS_ROTATABLE_BOND>
6

> <PUBCHEM_CACTVS_SUBSKEYS>
AAADceByIAAAAAAAAAAAAAAAAAAAAAAAAAAwAAAAAAAAAAABAAAAHgAQAAAADCzBmAQyAILAAACIAqBSAAACAAAkAAAIiIGIAMgIIDKAlTGEIQAgkACIiYcYiMCOAAAAAAAAAAAAAAAAAAAAAAAAAAAAAA==

> <PUBCHEM_IUPAC_OPENEYE_NAME>
2-(isopropylamino)-1-phenyl-pentan-1-one

> <PUBCHEM_IUPAC_CAS_NAME>
1-phenyl-2-(propan-2-ylamino)-1-pentanone

> <PUBCHEM_IUPAC_NAME>
1-phenyl-2-(propan-2-ylamino)pentan-1-one

> <PUBCHEM_IUPAC_SYSTEMATIC_NAME>
1-phenyl-2-(propan-2-ylamino)pentan-1-one

> <PUBCHEM_IUPAC_TRADITIONAL_NAME>
2-(isopropylamino)-1-phenyl-pentan-1-one

> <PUBCHEM_IUPAC_INCHI>
InChI=1S/C14H21NO/c1-4-8-13(15-11(2)3)14(16)12-9-6-5-7-10-12/h5-7,9-11,13,15H,4,8H2,1-3H3

> <PUBCHEM_IUPAC_INCHIKEY>
YKMMLFOYDTYAGR-UHFFFAOYSA-N

> <PUBCHEM_XLOGP3_AA>
3.3

> <PUBCHEM_EXACT_MASS>
219.162

> <PUBCHEM_MOLECULAR_FORMULA>
C14H21NO

> <PUBCHEM_MOLECULAR_WEIGHT>
219.328

> <PUBCHEM_OPENEYE_CAN_SMILES>
CCCC(C(=O)C1=CC=CC=C1)NC(C)C

> <PUBCHEM_OPENEYE_ISO_SMILES>
CCCC(C(=O)C1=CC=CC=C1)NC(C)C

> <PUBCHEM_CACTVS_TPSA>
29.1

> <PUBCHEM_MONOISOTOPIC_WEIGHT>
219.162

> <PUBCHEM_TOTAL_CHARGE>
0

> <PUBCHEM_HEAVY_ATOM_COUNT>
16

> <PUBCHEM_ATOM_DEF_STEREO_COUNT>
0

> <PUBCHEM_ATOM_UDEF_STEREO_COUNT>
1

> <PUBCHEM_BOND_DEF_STEREO_COUNT>
0

> <PUBCHEM_BOND_UDEF_STEREO_COUNT>
0

> <PUBCHEM_ISOTOPIC_ATOM_COUNT>
0

> <PUBCHEM_COMPONENT_COUNT>
1

> <PUBCHEM_CACTVS_TAUTO_COUNT>
1

> <PUBCHEM_COORDINATE_TYPE>
1
5
255

> <PUBCHEM_BONDANNOTATIONS>
10  12  8
10  13  8
12  14  8
13  15  8
14  16  8
15  16  8
3  4  3

$$$$
119057579
  -OEChem-12271619412D

 46 47  0     1  0  0  0  0  0999 V2000
    3.7026    0.0000    0.0000 Cl  0  0  0  0  0  0  0  0  0  0  0  0
    3.8163    7.5344    0.0000 O   0  0  0  0  0  0  0  0  0  0  0  0
    7.3606    6.3391    0.0000 O   0  0  0  0  0  0  0  0  0  0  0  0
    7.3606    4.7296    0.0000 O   0  0  0  0  0  0  0  0  0  0  0  0
    2.0843    6.5344    0.0000 N   0  0  0  0  0  0  0  0  0  0  0  0
    2.9503    6.0344    0.0000 C   0  0  3  0  0  0  0  0  0  0  0  0
    1.9797    7.5289    0.0000 C   0  0  0  0  0  0  0  0  0  0  0  0
    1.1707    6.1276    0.0000 C   0  0  0  0  0  0  0  0  0  0  0  0
    1.0016    7.7368    0.0000 C   0  0  0  0  0  0  0  0  0  0  0  0
    0.5016    6.8708    0.0000 C   0  0  0  0  0  0  0  0  0  0  0  0
    2.9503    5.0344    0.0000 C   0  0  0  0  0  0  0  0  0  0  0  0
    2.0843    4.5344    0.0000 C   0  0  0  0  0  0  0  0  0  0  0  0
    3.8163    6.5344    0.0000 C   0  0  0  0  0  0  0  0  0  0  0  0
    2.0843    3.5344    0.0000 C   0  0  0  0  0  0  0  0  0  0  0  0
    4.6823    6.0344    0.0000 C   0  0  0  0  0  0  0  0  0  0  0  0
    1.2182    3.0344    0.0000 C   0  0  0  0  0  0  0  0  0  0  0  0
    5.5484    6.5344    0.0000 C   0  0  0  0  0  0  0  0  0  0  0  0
    4.6823    5.0344    0.0000 C   0  0  0  0  0  0  0  0  0  0  0  0
    6.4144    6.0344    0.0000 C   0  0  0  0  0  0  0  0  0  0  0  0
    5.5484    4.5344    0.0000 C   0  0  0  0  0  0  0  0  0  0  0  0
    6.4144    5.0344    0.0000 C   0  0  0  0  0  0  0  0  0  0  0  0
    7.9442    5.5344    0.0000 C   0  0  0  0  0  0  0  0  0  0  0  0
    2.4134    5.7244    0.0000 H   0  0  0  0  0  0  0  0  0  0  0  0
    0.6691    5.7632    0.0000 H   0  0  0  0  0  0  0  0  0  0  0  0
    1.4807    5.5907    0.0000 H   0  0  0  0  0  0  0  0  0  0  0  0
    2.5997    7.5289    0.0000 H   0  0  0  0  0  0  0  0  0  0  0  0
    2.0446    8.1455    0.0000 H   0  0  0  0  0  0  0  0  0  0  0  0
    1.1932    8.3264    0.0000 H   0  0  0  0  0  0  0  0  0  0  0  0
    0.4352    7.9890    0.0000 H   0  0  0  0  0  0  0  0  0  0  0  0
    0.0000    7.2352    0.0000 H   0  0  0  0  0  0  0  0  0  0  0  0
    0.0867    6.4100    0.0000 H   0  0  0  0  0  0  0  0  0  0  0  0
    3.1623    4.4518    0.0000 H   0  0  0  0  0  0  0  0  0  0  0  0
    3.5609    5.1420    0.0000 H   0  0  0  0  0  0  0  0  0  0  0  0
    1.8722    5.1170    0.0000 H   0  0  0  0  0  0  0  0  0  0  0  0
    1.4737    4.4267    0.0000 H   0  0  0  0  0  0  0  0  0  0  0  0
    2.2963    2.9518    0.0000 H   0  0  0  0  0  0  0  0  0  0  0  0
    2.6949    3.6420    0.0000 H   0  0  0  0  0  0  0  0  0  0  0  0
    0.9082    3.5713    0.0000 H   0  0  0  0  0  0  0  0  0  0  0  0
    0.6813    2.7244    0.0000 H   0  0  0  0  0  0  0  0  0  0  0  0
    1.5282    2.4974    0.0000 H   0  0  0  0  0  0  0  0  0  0  0  0
    5.5484    7.1544    0.0000 H   0  0  0  0  0  0  0  0  0  0  0  0
    4.1454    4.7244    0.0000 H   0  0  0  0  0  0  0  0  0  0  0  0
    5.5484    3.9144    0.0000 H   0  0  0  0  0  0  0  0  0  0  0  0
    8.4051    5.1196    0.0000 H   0  0  0  0  0  0  0  0  0  0  0  0
    8.4051    5.9491    0.0000 H   0  0  0  0  0  0  0  0  0  0  0  0
    4.7025    0.0000    0.0000 H   0  0  0  0  0  0  0  0  0  0  0  0
  1 46  1  0  0  0  0
  2 13  2  0  0  0  0
  3 19  1  0  0  0  0
  3 22  1  0  0  0  0
  4 21  1  0  0  0  0
  4 22  1  0  0  0  0
  5  6  1  0  0  0  0
  5  7  1  0  0  0  0
  5  8  1  0  0  0  0
  6 11  1  0  0  0  0
  6 13  1  0  0  0  0
  6 23  1  0  0  0  0
  7  9  1  0  0  0  0
  7 26  1  0  0  0  0
  7 27  1  0  0  0  0
  8 10  1  0  0  0  0
  8 24  1  0  0  0  0
  8 25  1  0  0  0  0
  9 10  1  0  0  0  0
  9 28  1  0  0  0  0
  9 29  1  0  0  0  0
 10 30  1  0  0  0  0
 10 31  1  0  0  0  0
 11 12  1  0  0  0  0
 11 32  1  0  0  0  0
 11 33  1  0  0  0  0
 12 14  1  0  0  0  0
 12 34  1  0  0  0  0
 12 35  1  0  0  0  0
 13 15  1  0  0  0  0
 14 16  1  0  0  0  0
 14 36  1  0  0  0  0
 14 37  1  0  0  0  0
 15 17  2  0  0  0  0
 15 18  1  0  0  0  0
 16 38  1  0  0  0  0
 16 39  1  0  0  0  0
 16 40  1  0  0  0  0
 17 19  1  0  0  0  0
 17 41  1  0  0  0  0
 18 20  2  0  0  0  0
 18 42  1  0  0  0  0
 19 21  2  0  0  0  0
 20 21  1  0  0  0  0
 20 43  1  0  0  0  0
 22 44  1  0  0  0  0
 22 45  1  0  0  0  0
M  END
> <PUBCHEM_COMPOUND_CID>
119057579

> <PUBCHEM_COMPOUND_CANONICALIZED>
1

> <PUBCHEM_CACTVS_COMPLEXITY>
354

> <PUBCHEM_CACTVS_HBOND_ACCEPTOR>
4

> <PUBCHEM_CACTVS_HBOND_DONOR>
1

> <PUBCHEM_CACTVS_ROTATABLE_BOND>
6

> <PUBCHEM_CACTVS_SUBSKEYS>
AAADceB6MAAEAAAAAAAAAAAAAAAAAWJAAAAwAAAAAAAAAEgBAAAAHgAAAAAADCzBmAcyDoMABACIAqBSAAACCAAkIAAIiAGOiMgdJjKEtTukMSIkwBGOqYea3PPOIAABAAAAQABAAAIAAACAAAAAAAAAAA==

> <PUBCHEM_IUPAC_OPENEYE_NAME>
1-(1,3-benzodioxol-5-yl)-2-pyrrolidin-1-yl-hexan-1-one;hydrochloride

> <PUBCHEM_IUPAC_CAS_NAME>
1-(1,3-benzodioxol-5-yl)-2-(1-pyrrolidinyl)-1-hexanone;hydrochloride

> <PUBCHEM_IUPAC_NAME>
1-(1,3-benzodioxol-5-yl)-2-pyrrolidin-1-ylhexan-1-one;hydrochloride

> <PUBCHEM_IUPAC_SYSTEMATIC_NAME>
1-(1,3-benzodioxol-5-yl)-2-pyrrolidin-1-yl-hexan-1-one;hydrochloride

> <PUBCHEM_IUPAC_TRADITIONAL_NAME>
1-(1,3-benzodioxol-5-yl)-2-pyrrolidino-hexan-1-one;hydrochloride

> <PUBCHEM_IUPAC_INCHI>
InChI=1S/C17H23NO3.ClH/c1-2-3-6-14(18-9-4-5-10-18)17(19)13-7-8-15-16(11-13)21-12-20-15;/h7-8,11,14H,2-6,9-10,12H2,1H3;1H

> <PUBCHEM_IUPAC_INCHIKEY>
UDZJNLZRWBOFTK-UHFFFAOYSA-N

> <PUBCHEM_EXACT_MASS>
325.144

> <PUBCHEM_MOLECULAR_FORMULA>
C17H24ClNO3

> <PUBCHEM_MOLECULAR_WEIGHT>
325.833

> <PUBCHEM_OPENEYE_CAN_SMILES>
CCCCC(C(=O)C1=CC2=C(C=C1)OCO2)N3CCCC3.Cl

> <PUBCHEM_OPENEYE_ISO_SMILES>
CCCCC(C(=O)C1=CC2=C(C=C1)OCO2)N3CCCC3.Cl

> <PUBCHEM_CACTVS_TPSA>
38.8

> <PUBCHEM_MONOISOTOPIC_WEIGHT>
325.144

> <PUBCHEM_TOTAL_CHARGE>
0

> <PUBCHEM_HEAVY_ATOM_COUNT>
22

> <PUBCHEM_ATOM_DEF_STEREO_COUNT>
0

> <PUBCHEM_ATOM_UDEF_STEREO_COUNT>
1

> <PUBCHEM_BOND_DEF_STEREO_COUNT>
0

> <PUBCHEM_BOND_UDEF_STEREO_COUNT>
0

> <PUBCHEM_ISOTOPIC_ATOM_COUNT>
0

> <PUBCHEM_COMPONENT_COUNT>
2

> <PUBCHEM_CACTVS_TAUTO_COUNT>
1

> <PUBCHEM_COORDINATE_TYPE>
1
5
255

> <PUBCHEM_BONDANNOTATIONS>
15  17  8
15  18  8
17  19  8
18  20  8
19  21  8
20  21  8
6  11  3

$$$$
10083
  -OEChem-12271619533D

 41 43  0     1  0  0  0  0  0999 V2000
   -0.2878    0.1948   -1.8882 O   0  0  0  0  0  0  0  0  0  0  0  0
   -2.4651   -0.0855   -0.2501 N   0  0  0  0  0  0  0  0  0  0  0  0
   -1.2744    0.6477    0.1982 C   0  0  1  0  0  0  0  0  0  0  0  0
   -0.0386    0.0516   -0.4734 C   0  0  0  0  0  0  0  0  0  0  0  0
   -1.3989    2.1414   -0.1322 C   0  0  0  0  0  0  0  0  0  0  0  0
   -2.6716    2.7353    0.4652 C   0  0  0  0  0  0  0  0  0  0  0  0
   -3.8885    1.9111    0.0594 C   0  0  0  0  0  0  0  0  0  0  0  0
   -3.6837    0.4310    0.3736 C   0  0  0  0  0  0  0  0  0  0  0  0
    0.0698   -1.4410   -0.1157 C   0  0  0  0  0  0  0  0  0  0  0  0
    1.2857    0.7776   -0.1819 C   0  0  0  0  0  0  0  0  0  0  0  0
    0.3592   -1.7792    1.1821 C   0  0  0  0  0  0  0  0  0  0  0  0
    2.2252    0.8435   -1.1801 C   0  0  0  0  0  0  0  0  0  0  0  0
   -0.1285   -2.3645   -1.1107 C   0  0  0  0  0  0  0  0  0  0  0  0
    1.4669    1.3266    1.0626 C   0  0  0  0  0  0  0  0  0  0  0  0
    0.4573   -3.1322    1.5066 C   0  0  0  0  0  0  0  0  0  0  0  0
    3.4260    1.5020   -0.9159 C   0  0  0  0  0  0  0  0  0  0  0  0
   -0.0305   -3.7174   -0.7860 C   0  0  0  0  0  0  0  0  0  0  0  0
    2.6679    1.9853    1.3266 C   0  0  0  0  0  0  0  0  0  0  0  0
    0.2624   -4.1013    0.5227 C   0  0  0  0  0  0  0  0  0  0  0  0
    3.6474    2.0730    0.3372 C   0  0  0  0  0  0  0  0  0  0  0  0
   -1.2168    0.5418    1.2895 H   0  0  0  0  0  0  0  0  0  0  0  0
   -1.4405    2.3092   -1.2152 H   0  0  0  0  0  0  0  0  0  0  0  0
   -0.5563    2.7287    0.2419 H   0  0  0  0  0  0  0  0  0  0  0  0
   -2.7947    3.7727    0.1349 H   0  0  0  0  0  0  0  0  0  0  0  0
   -2.5887    2.7531    1.5589 H   0  0  0  0  0  0  0  0  0  0  0  0
   -2.3843   -1.0736   -0.0152 H   0  0  0  0  0  0  0  0  0  0  0  0
   -4.7777    2.2820    0.5815 H   0  0  0  0  0  0  0  0  0  0  0  0
   -4.0724    2.0368   -1.0151 H   0  0  0  0  0  0  0  0  0  0  0  0
   -3.6484    0.2739    1.4586 H   0  0  0  0  0  0  0  0  0  0  0  0
   -4.5415   -0.1366   -0.0035 H   0  0  0  0  0  0  0  0  0  0  0  0
   -0.0816    1.1013   -2.1705 H   0  0  0  0  0  0  0  0  0  0  0  0
    0.4968   -1.0522    1.9728 H   0  0  0  0  0  0  0  0  0  0  0  0
    2.0918    0.3881   -2.1557 H   0  0  0  0  0  0  0  0  0  0  0  0
   -0.3597   -2.1054   -2.1377 H   0  0  0  0  0  0  0  0  0  0  0  0
    0.7336    1.2738    1.8584 H   0  0  0  0  0  0  0  0  0  0  0  0
    0.6807   -3.4316    2.5265 H   0  0  0  0  0  0  0  0  0  0  0  0
    4.1913    1.5654   -1.6839 H   0  0  0  0  0  0  0  0  0  0  0  0
   -0.1830   -4.4726   -1.5516 H   0  0  0  0  0  0  0  0  0  0  0  0
    2.8415    2.4284    2.3028 H   0  0  0  0  0  0  0  0  0  0  0  0
    0.3373   -5.1548    0.7757 H   0  0  0  0  0  0  0  0  0  0  0  0
    4.5831    2.5843    0.5434 H   0  0  0  0  0  0  0  0  0  0  0  0
  1  4  1  0  0  0  0
  1 31  1  0  0  0  0
  2  3  1  0  0  0  0
  2  8  1  0  0  0  0
  2 26  1  0  0  0  0
  3  4  1  0  0  0  0
  3  5  1  0  0  0  0
  3 21  1  0  0  0  0
  4  9  1  0  0  0  0
  4 10  1  0  0  0  0
  5  6  1  0  0  0  0
  5 22  1  0  0  0  0
  5 23  1  0  0  0  0
  6  7  1  0  0  0  0
  6 24  1  0  0  0  0
  6 25  1  0  0  0  0
  7  8  1  0  0  0  0
  7 27  1  0  0  0  0
  7 28  1  0  0  0  0
  8 29  1  0  0  0  0
  8 30  1  0  0  0  0
  9 11  2  0  0  0  0
  9 13  1  0  0  0  0
 10 12  2  0  0  0  0
 10 14  1  0  0  0  0
 11 15  1  0  0  0  0
 11 32  1  0  0  0  0
 12 16  1  0  0  0  0
 12 33  1  0  0  0  0
 13 17  2  0  0  0  0
 13 34  1  0  0  0  0
 14 18  2  0  0  0  0
 14 35  1  0  0  0  0
 15 19  2  0  0  0  0
 15 36  1  0  0  0  0
 16 20  2  0  0  0  0
 16 37  1  0  0  0  0
 17 19  1  0  0  0  0
 17 38  1  0  0  0  0
 18 20  1  0  0  0  0
 18 39  1  0  0  0  0
 19 40  1  0  0  0  0
 20 41  1  0  0  0  0
M  END
> <PUBCHEM_COMPOUND_CID>
10083

> <PUBCHEM_CONFORMER_RMSD>
0.6

> <PUBCHEM_CONFORMER_DIVERSEORDER>
1
6
2
8
4
9
7
5
10
3

> <PUBCHEM_MMFF94_PARTIAL_CHARGES>
29
1 -0.68
10 -0.14
11 -0.15
12 -0.15
13 -0.15
14 -0.15
15 -0.15
16 -0.15
17 -0.15
18 -0.15
19 -0.15
2 -0.9
20 -0.15
26 0.36
3 0.27
31 0.4
32 0.15
33 0.15
34 0.15
35 0.15
36 0.15
37 0.15
38 0.15
39 0.15
4 0.57
40 0.15
41 0.15
8 0.27
9 -0.14

> <PUBCHEM_EFFECTIVE_ROTOR_COUNT>
4.2

> <PUBCHEM_PHARMACOPHORE_FEATURES>
7
1 1 acceptor
1 1 donor
1 2 cation
1 2 donor
6 10 12 14 16 18 20 rings
6 2 3 5 6 7 8 rings
6 9 11 13 15 17 19 rings

> <PUBCHEM_HEAVY_ATOM_COUNT>
20

> <PUBCHEM_ATOM_DEF_STEREO_COUNT>
0

> <PUBCHEM_ATOM_UDEF_STEREO_COUNT>
1

> <PUBCHEM_BOND_DEF_STEREO_COUNT>
0

> <PUBCHEM_BOND_UDEF_STEREO_COUNT>
0

> <PUBCHEM_ISOTOPIC_ATOM_COUNT>
0

> <PUBCHEM_COMPONENT_COUNT>
1

> <PUBCHEM_CACTVS_TAUTO_COUNT>
1

> <PUBCHEM_CONFORMER_ID>
0000276300000001

> <PUBCHEM_MMFF94_ENERGY>
60.4157

> <PUBCHEM_FEATURE_SELFOVERLAP>
35.527

> <PUBCHEM_SHAPE_FINGERPRINT>
11101153 10 8304898851986238491
11578080 2 11837682320472018525
116883 192 17549261887999403383
12532896 13 18341047522884225460
12553582 1 17040368380497519710
12788726 201 17757276255280493394
13083527 12 18120627186082723695
13134695 92 17405124250103526949
13140716 1 18410009901368874985
13294875 104 18057592175540302832
133893 2 17972573529833323007
136203 1 17978511162989812760
13681431 1 17689705372847388694
14178342 30 18262817215356043009
14223421 5 18263932034104791433
14863182 85 18189076294780382343
14955137 171 18054502509306427170
15042514 8 18120940773981332498
15906896 17 18119251911273102858
16945 1 18126000713533407876
17980427 23 17051304715668549201
19591789 44 18411420596325607218
20028762 73 17767701807952237023
20567600 347 18408327674685830587
20645476 183 18335990873414385444
20905425 154 17836654015463193220
21524375 3 18412827971188172020
22956985 138 17969216737929950131
23366157 5 17972609783699870941
23419403 2 17107689995444123010
23557571 272 17836932574568929948
23558518 356 18124304167345171404
23559900 14 17978782416572320665
298252 57 17275103933564756004
3091708 16 9120632004008412899
3187 122 16973611505720243824
404807 78 17391322459710708895
4175511 71 17331688942420948321
43471831 8 18409446968906688953
458136 41 18266198157291628081
5845 1 16622680332274396194
6138700 20 18050297964495266030
633830 44 18201442458496902909
6442390 28 18340219573638603625
68419 9 17485323925418522957
7364860 26 18124315999937600925
81228 2 17906445885192088521
84936 182 18270405958041778465
9841814 1 17758966913643586779

> <PUBCHEM_SHAPE_MULTIPOLES>
400.74
4.99
4.78
1.34
1.6
5.71
-0.04
-6.44
0.26
-0.32
0.85
-0.62
0.36
-0.15

> <PUBCHEM_SHAPE_SELFOVERLAP>
867.5

> <PUBCHEM_SHAPE_VOLUME>
216.8

> <PUBCHEM_COORDINATE_TYPE>
2
5
10

$$$$
10421832
  -OEChem-12271618503D

 25 25  0     1  0  0  0  0  0999 V2000
    4.7362   -0.2809   -0.4532 Br  0  0  0  0  0  0  0  0  0  0  0  0
   -1.7076    1.0384    1.4519 O   0  0  0  0  0  0  0  0  0  0  0  0
   -3.0920    0.2119   -0.9835 N   0  0  0  0  0  0  0  0  0  0  0  0
   -2.2932   -0.6577   -0.1563 C   0  0  1  0  0  0  0  0  0  0  0  0
   -1.2850    0.2276    0.6020 C   0  0  0  0  0  0  0  0  0  0  0  0
    0.1425    0.1074    0.3503 C   0  0  0  0  0  0  0  0  0  0  0  0
   -3.1625   -1.4444    0.8106 C   0  0  0  0  0  0  0  0  0  0  0  0
    0.6808   -1.1180   -0.0418 C   0  0  0  0  0  0  0  0  0  0  0  0
    0.9733    1.2175    0.5028 C   0  0  0  0  0  0  0  0  0  0  0  0
   -2.2663    0.9535   -1.9352 C   0  0  0  0  0  0  0  0  0  0  0  0
    2.0500   -1.2337   -0.2814 C   0  0  0  0  0  0  0  0  0  0  0  0
    2.3427    1.1020    0.2631 C   0  0  0  0  0  0  0  0  0  0  0  0
    2.8810   -0.1236   -0.1292 C   0  0  0  0  0  0  0  0  0  0  0  0
   -1.7867   -1.3783   -0.8035 H   0  0  0  0  0  0  0  0  0  0  0  0
   -3.7436   -0.7843    1.4649 H   0  0  0  0  0  0  0  0  0  0  0  0
   -2.5439   -2.0785    1.4552 H   0  0  0  0  0  0  0  0  0  0  0  0
   -3.8651   -2.0916    0.2743 H   0  0  0  0  0  0  0  0  0  0  0  0
   -3.7782   -0.3404   -1.4977 H   0  0  0  0  0  0  0  0  0  0  0  0
    0.0760   -2.0145   -0.1345 H   0  0  0  0  0  0  0  0  0  0  0  0
    0.5713    2.1817    0.8030 H   0  0  0  0  0  0  0  0  0  0  0  0
   -2.9248    1.4750   -2.6380 H   0  0  0  0  0  0  0  0  0  0  0  0
   -1.6217    0.2914   -2.5230 H   0  0  0  0  0  0  0  0  0  0  0  0
   -1.6607    1.7260   -1.4521 H   0  0  0  0  0  0  0  0  0  0  0  0
    2.4553   -2.1977   -0.5780 H   0  0  0  0  0  0  0  0  0  0  0  0
    2.9762    1.9768    0.3854 H   0  0  0  0  0  0  0  0  0  0  0  0
  1 13  1  0  0  0  0
  2  5  2  0  0  0  0
  3  4  1  0  0  0  0
  3 10  1  0  0  0  0
  3 18  1  0  0  0  0
  4  5  1  0  0  0  0
  4  7  1  0  0  0  0
  4 14  1  0  0  0  0
  5  6  1  0  0  0  0
  6  8  2  0  0  0  0
  6  9  1  0  0  0  0
  7 15  1  0  0  0  0
  7 16  1  0  0  0  0
  7 17  1  0  0  0  0
  8 11  1  0  0  0  0
  8 19  1  0  0  0  0
  9 12  2  0  0  0  0
  9 20  1  0  0  0  0
 10 21  1  0  0  0  0
 10 22  1  0  0  0  0
 10 23  1  0  0  0  0
 11 13  2  0  0  0  0
 11 24  1  0  0  0  0
 12 13  1  0  0  0  0
 12 25  1  0  0  0  0
M  END
> <PUBCHEM_COMPOUND_CID>
10421832

> <PUBCHEM_CONFORMER_RMSD>
0.6

> <PUBCHEM_CONFORMER_DIVERSEORDER>
5
18
8
17
6
10
13
15
7
12
21
19
9
20
2
11
1
3
14
4
16

> <PUBCHEM_MMFF94_PARTIAL_CHARGES>
17
1 -0.11
10 0.27
11 -0.15
12 -0.15
13 0.11
18 0.36
19 0.15
2 -0.57
20 0.15
24 0.15
25 0.15
3 -0.9
4 0.33
5 0.42
6 0.09
8 -0.15
9 -0.15

> <PUBCHEM_EFFECTIVE_ROTOR_COUNT>
3

> <PUBCHEM_PHARMACOPHORE_FEATURES>
5
1 1 hydrophobe
1 2 acceptor
1 3 cation
1 3 donor
6 6 8 9 11 12 13 rings

> <PUBCHEM_HEAVY_ATOM_COUNT>
13

> <PUBCHEM_ATOM_DEF_STEREO_COUNT>
0

> <PUBCHEM_ATOM_UDEF_STEREO_COUNT>
1

> <PUBCHEM_BOND_DEF_STEREO_COUNT>
0

> <PUBCHEM_BOND_UDEF_STEREO_COUNT>
0

> <PUBCHEM_ISOTOPIC_ATOM_COUNT>
0

> <PUBCHEM_COMPONENT_COUNT>
1

> <PUBCHEM_CACTVS_TAUTO_COUNT>
2

> <PUBCHEM_CONFORMER_ID>
009F064800000005

> <PUBCHEM_MMFF94_ENERGY>
31.0088

> <PUBCHEM_FEATURE_SELFOVERLAP>
25.371

> <PUBCHEM_SHAPE_FINGERPRINT>
11543360 7 17240777223959388118
12032990 46 18272381871142628490
12138202 97 17677034764347877199
12897270 3 18411976970625939657
12932764 1 17894348869284762258
14993402 34 18202001023741706910
15775835 57 17894628128142945371
16945 1 17917708032730122610
17844478 74 18188494682872209155
18186145 218 18335427859278586380
19026448 4 16371018399330456978
19026448 5 16298379163446302202
200 152 17917423233343119431
20201158 50 18411698781252029990
20300324 65 16805606992299548310
20361792 2 16773218687244767773
20645464 45 11815902253672122279
20645477 56 17749104453098191237
20711983 171 16588296168643655380
21061003 4 18270687579305489361
22926399 65 17095794417660581900
23402539 116 17703511004845727068
23402655 69 18199461074372140645
23557571 272 17822015315203258613
23559900 14 18188483572345923450
25 1 18191857938591295005
2748010 2 18054789756840151986
5084963 1 18187932827702723816
57812782 119 18187921819775488066
8030462 33 17988638566993093770
8809292 202 18264215879397430922

> <PUBCHEM_SHAPE_MULTIPOLES>
262.63
6.82
1.39
1.22
4.31
0.11
0.19
0.92
1.46
-0.5
0.04
-0.91
-0.45
0.81

> <PUBCHEM_SHAPE_SELFOVERLAP>
523.436

> <PUBCHEM_SHAPE_VOLUME>
160.4

> <PUBCHEM_COORDINATE_TYPE>
2
5
10

$$$$
11148955
  -OEChem-12271619323D

 38 39  0     1  0  0  0  0  0999 V2000
    0.0786    0.2468    2.0352 O   0  0  0  0  0  0  0  0  0  0  0  0
   -1.9512   -0.5170    0.1465 N   0  0  0  0  0  0  0  0  0  0  0  0
   -0.9204    0.4662   -0.1514 C   0  0  1  0  0  0  0  0  0  0  0  0
   -3.1266   -0.3712   -0.7116 C   0  0  0  0  0  0  0  0  0  0  0  0
   -1.4927   -1.8893   -0.0677 C   0  0  0  0  0  0  0  0  0  0  0  0
   -3.8636   -1.6867   -0.5075 C   0  0  0  0  0  0  0  0  0  0  0  0
   -2.7904   -2.6835   -0.0809 C   0  0  0  0  0  0  0  0  0  0  0  0
   -1.4899    1.8794    0.0497 C   0  0  0  0  0  0  0  0  0  0  0  0
    0.2263    0.1868    0.8154 C   0  0  0  0  0  0  0  0  0  0  0  0
   -0.4358    2.9654   -0.1900 C   0  0  0  0  0  0  0  0  0  0  0  0
    1.5668   -0.1670    0.2748 C   0  0  0  0  0  0  0  0  0  0  0  0
   -1.0214    4.3571   -0.0087 C   0  0  0  0  0  0  0  0  0  0  0  0
    1.9434    0.3397   -0.9502 C   0  0  0  0  0  0  0  0  0  0  0  0
    2.3856   -0.9897    1.0180 C   0  0  0  0  0  0  0  0  0  0  0  0
    3.1999    0.0076   -1.4569 C   0  0  0  0  0  0  0  0  0  0  0  0
    3.6421   -1.3217    0.5114 C   0  0  0  0  0  0  0  0  0  0  0  0
    4.0492   -0.8230   -0.7262 C   0  0  0  0  0  0  0  0  0  0  0  0
   -0.6102    0.3540   -1.1943 H   0  0  0  0  0  0  0  0  0  0  0  0
   -2.8544   -0.2603   -1.7691 H   0  0  0  0  0  0  0  0  0  0  0  0
   -3.7726    0.4628   -0.4208 H   0  0  0  0  0  0  0  0  0  0  0  0
   -0.8317   -2.2528    0.7255 H   0  0  0  0  0  0  0  0  0  0  0  0
   -0.9816   -2.0052   -1.0323 H   0  0  0  0  0  0  0  0  0  0  0  0
   -4.3732   -2.0071   -1.4219 H   0  0  0  0  0  0  0  0  0  0  0  0
   -4.6178   -1.5939    0.2829 H   0  0  0  0  0  0  0  0  0  0  0  0
   -3.0209   -3.0704    0.9187 H   0  0  0  0  0  0  0  0  0  0  0  0
   -2.7331   -3.5355   -0.7658 H   0  0  0  0  0  0  0  0  0  0  0  0
   -1.8878    1.9894    1.0674 H   0  0  0  0  0  0  0  0  0  0  0  0
   -2.3170    2.0708   -0.6435 H   0  0  0  0  0  0  0  0  0  0  0  0
   -0.0414    2.8824   -1.2086 H   0  0  0  0  0  0  0  0  0  0  0  0
    0.4052    2.8500    0.5021 H   0  0  0  0  0  0  0  0  0  0  0  0
   -1.4034    4.4923    1.0082 H   0  0  0  0  0  0  0  0  0  0  0  0
   -0.2544    5.1172   -0.1872 H   0  0  0  0  0  0  0  0  0  0  0  0
   -1.8427    4.5326   -0.7109 H   0  0  0  0  0  0  0  0  0  0  0  0
    1.3286    1.0100   -1.5378 H   0  0  0  0  0  0  0  0  0  0  0  0
    2.0798   -1.3903    1.9798 H   0  0  0  0  0  0  0  0  0  0  0  0
    3.5200    0.4009   -2.4175 H   0  0  0  0  0  0  0  0  0  0  0  0
    4.3033   -1.9695    1.0797 H   0  0  0  0  0  0  0  0  0  0  0  0
    5.0280   -1.0805   -1.1200 H   0  0  0  0  0  0  0  0  0  0  0  0
  1  9  2  0  0  0  0
  2  3  1  0  0  0  0
  2  4  1  0  0  0  0
  2  5  1  0  0  0  0
  3  8  1  0  0  0  0
  3  9  1  0  0  0  0
  3 18  1  0  0  0  0
  4  6  1  0  0  0  0
  4 19  1  0  0  0  0
  4 20  1  0  0  0  0
  5  7  1  0  0  0  0
  5 21  1  0  0  0  0
  5 22  1  0  0  0  0
  6  7  1  0  0  0  0
  6 23  1  0  0  0  0
  6 24  1  0  0  0  0
  7 25  1  0  0  0  0
  7 26  1  0  0  0  0
  8 10  1  0  0  0  0
  8 27  1  0  0  0  0
  8 28  1  0  0  0  0
  9 11  1  0  0  0  0
 10 12  1  0  0  0  0
 10 29  1  0  0  0  0
 10 30  1  0  0  0  0
 11 13  2  0  0  0  0
 11 14  1  0  0  0  0
 12 31  1  0  0  0  0
 12 32  1  0  0  0  0
 12 33  1  0  0  0  0
 13 15  1  0  0  0  0
 13 34  1  0  0  0  0
 14 16  2  0  0  0  0
 14 35  1  0  0  0  0
 15 17  2  0  0  0  0
 15 36  1  0  0  0  0
 16 17  1  0  0  0  0
 16 37  1  0  0  0  0
 17 38  1  0  0  0  0
M  END
> <PUBCHEM_COMPOUND_CID>
11148955

> <PUBCHEM_CONFORMER_RMSD>
0.8

> <PUBCHEM_CONFORMER_DIVERSEORDER>
1
13
20
11
19
12
16
21
18
14
2
5
15
17
4
8
9
7
10
6
3

> <PUBCHEM_MMFF94_PARTIAL_CHARGES>
17
1 -0.57
11 0.09
13 -0.15
14 -0.15
15 -0.15
16 -0.15
17 -0.15
2 -0.81
3 0.33
34 0.15
35 0.15
36 0.15
37 0.15
38 0.15
4 0.27
5 0.27
9 0.42

> <PUBCHEM_EFFECTIVE_ROTOR_COUNT>
6

> <PUBCHEM_PHARMACOPHORE_FEATURES>
5
1 1 acceptor
1 12 hydrophobe
1 2 cation
5 2 4 5 6 7 rings
6 11 13 14 15 16 17 rings

> <PUBCHEM_HEAVY_ATOM_COUNT>
17

> <PUBCHEM_ATOM_DEF_STEREO_COUNT>
0

> <PUBCHEM_ATOM_UDEF_STEREO_COUNT>
1

> <PUBCHEM_BOND_DEF_STEREO_COUNT>
0

> <PUBCHEM_BOND_UDEF_STEREO_COUNT>
0

> <PUBCHEM_ISOTOPIC_ATOM_COUNT>
0

> <PUBCHEM_COMPONENT_COUNT>
1

> <PUBCHEM_CACTVS_TAUTO_COUNT>
2

> <PUBCHEM_CONFORMER_ID>
00AA1E9B00000001

> <PUBCHEM_MMFF94_ENERGY>
35.3667

> <PUBCHEM_FEATURE_SELFOVERLAP>
25.371

> <PUBCHEM_SHAPE_FINGERPRINT>
11578080 2 17244099921912388900
11833330 49 18408877425857052680
12173636 292 18122336874607531828
12202030 40 17273714082453615150
12500047 106 17980475664431414970
12553582 1 18410014364051314179
12714826 92 18060421287577456454
12788726 201 18335708195477066368
13583140 156 17628887116404271346
13955234 65 17620478343316382691
14004458 79 18340216197493810685
14178342 30 18119230789146258914
14817 1 11182753967206012473
15502722 9 17618505819160571269
15842332 3 17896607180959970938
15852999 172 17554603994350188110
15906896 17 18044674000329378497
16752209 62 18264190440648345687
16945 1 18339641131400320970
1813 80 18200047247150096591
18186145 218 15574708114519278542
200 152 18040716982872771366
20361792 2 18271240637785866463
20600515 1 18058465342312088143
20645477 70 17690832781042918911
20671657 53 18341335612179091759
20711985 344 18340765940575465497
20871999 31 18335134311027669639
21285901 2 18059861602184075413
21524375 3 17610911079730585744
22112679 90 18268172953110416809
23382010 3 16589145116063879003
23402539 116 18411412882479863494
23419403 2 17273386487690994288
23557571 272 18342164571122167944
23559900 14 18270389509002538154
23598288 3 18043819684195026249
2748010 2 18197759180590144937
298252 57 17758682148284694648
3082319 5 18040716978409116022
3091708 16 9279360822772953921
314173 41 18267027343683308871
6442390 28 17624148109192502825
6992083 37 17608925383484512472
7164475 11 18336263431964792238
7364860 26 17835519701947311605
7615 1 17895753981379939792
81228 2 18343024359034065353
84936 31 17413587594765907001

> <PUBCHEM_SHAPE_MULTIPOLES>
339
6.3
3.59
1.18
2.56
4.82
0.2
-4.9
-1.76
-3.44
-0.05
0.72
-0.07
-0.49

> <PUBCHEM_SHAPE_SELFOVERLAP>
701.081

> <PUBCHEM_SHAPE_VOLUME>
196.3

> <PUBCHEM_COORDINATE_TYPE>
2
5
10

$$$$
11243002
  -OEChem-12271619343D

 44 46  0     1  0  0  0  0  0999 V2000
   -1.4654    0.1784   -2.2209 O   0  0  0  0  0  0  0  0  0  0  0  0
   -2.9321   -0.5992    0.1199 N   0  0  0  0  0  0  0  0  0  0  0  0
   -1.9148    0.4413    0.1363 C   0  0  2  0  0  0  0  0  0  0  0  0
   -2.3609   -1.9407    0.2358 C   0  0  0  0  0  0  0  0  0  0  0  0
   -3.8650   -0.4857    1.2406 C   0  0  0  0  0  0  0  0  0  0  0  0
   -3.5687   -2.7968    0.5875 C   0  0  0  0  0  0  0  0  0  0  0  0
   -4.5586   -1.8398    1.2445 C   0  0  0  0  0  0  0  0  0  0  0  0
   -2.5872    1.8204    0.0463 C   0  0  0  0  0  0  0  0  0  0  0  0
   -0.9909    0.1664   -1.0680 C   0  0  0  0  0  0  0  0  0  0  0  0
   -1.5632    2.9591   -0.0050 C   0  0  0  0  0  0  0  0  0  0  0  0
    0.4229   -0.1075   -0.8653 C   0  0  0  0  0  0  0  0  0  0  0  0
   -2.2447    4.3140   -0.1164 C   0  0  0  0  0  0  0  0  0  0  0  0
    1.0925    0.4509    0.2240 C   0  0  0  0  0  0  0  0  0  0  0  0
    1.1067   -0.9278   -1.7577 C   0  0  0  0  0  0  0  0  0  0  0  0
    2.4575    0.1953    0.4338 C   0  0  0  0  0  0  0  0  0  0  0  0
    3.1528   -0.6387   -0.4738 C   0  0  0  0  0  0  0  0  0  0  0  0
    2.4628   -1.1926   -1.5644 C   0  0  0  0  0  0  0  0  0  0  0  0
    3.1475    0.7489    1.5246 C   0  0  0  0  0  0  0  0  0  0  0  0
    4.5177   -0.8944   -0.2641 C   0  0  0  0  0  0  0  0  0  0  0  0
    4.5037    0.4843    1.7174 C   0  0  0  0  0  0  0  0  0  0  0  0
    5.1876   -0.3357    0.8248 C   0  0  0  0  0  0  0  0  0  0  0  0
   -1.3588    0.3829    1.0773 H   0  0  0  0  0  0  0  0  0  0  0  0
   -1.6199   -2.0028    1.0435 H   0  0  0  0  0  0  0  0  0  0  0  0
   -1.9003   -2.2965   -0.6912 H   0  0  0  0  0  0  0  0  0  0  0  0
   -4.6053    0.3091    1.1071 H   0  0  0  0  0  0  0  0  0  0  0  0
   -3.3462   -0.3332    2.1957 H   0  0  0  0  0  0  0  0  0  0  0  0
   -3.2964   -3.6199    1.2559 H   0  0  0  0  0  0  0  0  0  0  0  0
   -4.0160   -3.2302   -0.3149 H   0  0  0  0  0  0  0  0  0  0  0  0
   -5.4848   -1.8061    0.6588 H   0  0  0  0  0  0  0  0  0  0  0  0
   -4.8152   -2.1568    2.2604 H   0  0  0  0  0  0  0  0  0  0  0  0
   -3.2332    2.0002    0.9133 H   0  0  0  0  0  0  0  0  0  0  0  0
   -3.2222    1.8737   -0.8480 H   0  0  0  0  0  0  0  0  0  0  0  0
   -0.8921    2.8395   -0.8621 H   0  0  0  0  0  0  0  0  0  0  0  0
   -0.9477    2.9462    0.9014 H   0  0  0  0  0  0  0  0  0  0  0  0
   -2.9004    4.4956    0.7412 H   0  0  0  0  0  0  0  0  0  0  0  0
   -1.4972    5.1128   -0.1470 H   0  0  0  0  0  0  0  0  0  0  0  0
   -2.8463    4.3766   -1.0288 H   0  0  0  0  0  0  0  0  0  0  0  0
    0.5859    1.1156    0.9173 H   0  0  0  0  0  0  0  0  0  0  0  0
    0.6009   -1.3766   -2.6088 H   0  0  0  0  0  0  0  0  0  0  0  0
    2.9772   -1.8377   -2.2738 H   0  0  0  0  0  0  0  0  0  0  0  0
    2.6336    1.3928    2.2354 H   0  0  0  0  0  0  0  0  0  0  0  0
    5.0722   -1.5326   -0.9491 H   0  0  0  0  0  0  0  0  0  0  0  0
    5.0257    0.9188    2.5651 H   0  0  0  0  0  0  0  0  0  0  0  0
    6.2433   -0.5413    0.9755 H   0  0  0  0  0  0  0  0  0  0  0  0
  1  9  2  0  0  0  0
  2  3  1  0  0  0  0
  2  4  1  0  0  0  0
  2  5  1  0  0  0  0
  3  8  1  0  0  0  0
  3  9  1  0  0  0  0
  3 22  1  0  0  0  0
  4  6  1  0  0  0  0
  4 23  1  0  0  0  0
  4 24  1  0  0  0  0
  5  7  1  0  0  0  0
  5 25  1  0  0  0  0
  5 26  1  0  0  0  0
  6  7  1  0  0  0  0
  6 27  1  0  0  0  0
  6 28  1  0  0  0  0
  7 29  1  0  0  0  0
  7 30  1  0  0  0  0
  8 10  1  0  0  0  0
  8 31  1  0  0  0  0
  8 32  1  0  0  0  0
  9 11  1  0  0  0  0
 10 12  1  0  0  0  0
 10 33  1  0  0  0  0
 10 34  1  0  0  0  0
 11 13  2  0  0  0  0
 11 14  1  0  0  0  0
 12 35  1  0  0  0  0
 12 36  1  0  0  0  0
 12 37  1  0  0  0  0
 13 15  1  0  0  0  0
 13 38  1  0  0  0  0
 14 17  2  0  0  0  0
 14 39  1  0  0  0  0
 15 16  1  0  0  0  0
 15 18  2  0  0  0  0
 16 17  1  0  0  0  0
 16 19  2  0  0  0  0
 17 40  1  0  0  0  0
 18 20  1  0  0  0  0
 18 41  1  0  0  0  0
 19 21  1  0  0  0  0
 19 42  1  0  0  0  0
 20 21  2  0  0  0  0
 20 43  1  0  0  0  0
 21 44  1  0  0  0  0
M  END
> <PUBCHEM_COMPOUND_CID>
11243002

> <PUBCHEM_CONFORMER_RMSD>
0.8

> <PUBCHEM_CONFORMER_DIVERSEORDER>
1
27
4
12
38
17
24
14
40
22
8
34
29
10
28
32
16
5
26
36
20
11
21
39
30
25
37
9
23
7
13
33
31
3
35
6
15
19
18
2

> <PUBCHEM_MMFF94_PARTIAL_CHARGES>
21
1 -0.57
11 0.09
13 -0.15
14 -0.15
17 -0.15
18 -0.15
19 -0.15
2 -0.81
20 -0.15
21 -0.15
3 0.33
38 0.15
39 0.15
4 0.27
40 0.15
41 0.15
42 0.15
43 0.15
44 0.15
5 0.27
9 0.42

> <PUBCHEM_EFFECTIVE_ROTOR_COUNT>
6

> <PUBCHEM_PHARMACOPHORE_FEATURES>
6
1 1 acceptor
1 12 hydrophobe
1 2 cation
5 2 4 5 6 7 rings
6 11 13 14 15 16 17 rings
6 15 16 18 19 20 21 rings

> <PUBCHEM_HEAVY_ATOM_COUNT>
21

> <PUBCHEM_ATOM_DEF_STEREO_COUNT>
0

> <PUBCHEM_ATOM_UDEF_STEREO_COUNT>
1

> <PUBCHEM_BOND_DEF_STEREO_COUNT>
0

> <PUBCHEM_BOND_UDEF_STEREO_COUNT>
0

> <PUBCHEM_ISOTOPIC_ATOM_COUNT>
0

> <PUBCHEM_COMPONENT_COUNT>
1

> <PUBCHEM_CACTVS_TAUTO_COUNT>
2

> <PUBCHEM_CONFORMER_ID>
00AB8DFA00000001

> <PUBCHEM_MMFF94_ENERGY>
50.6361

> <PUBCHEM_FEATURE_SELFOVERLAP>
30.472

> <PUBCHEM_SHAPE_FINGERPRINT>
10319926 262 18267576923920255922
10366900 7 18273208681783963239
11046707 91 17603300479228027291
11370993 144 17703242710485714835
11552529 35 18260540121925933634
12035758 1 18339656568610451585
12236239 1 17022625285975665751
12363563 72 18189906477235048731
12403814 3 17846773031511090597
12553582 1 18265352757657140495
12596602 18 17821723958045175408
12633257 1 18270410493679957859
12788726 201 18115329850444230185
12892183 10 18337379479665005378
12930653 34 18338234847438831110
13583140 156 18201431424983875298
13675066 3 18131630059081723062
14081887 123 18410294687992412491
14178342 30 18189056408480421758
14289901 80 18334020475699623002
14787075 74 17824542117784193152
15099037 37 18411134744676832749
15342168 16 15554456205673312643
15806764 133 17703241611390890028
16988056 13 10871353484012723531
17349148 13 17022624190912084058
17780758 139 18188193322254778434
17980427 23 17274270564776930737
17980427 26 17257917205608498741
1813 80 17677057952923963023
18186145 218 16630519649076637964
18219364 16 17346873429828431504
19049666 15 18056206764839608143
19862831 5 12540687133105119842
200 152 15357693102235104710
20671657 53 16660925603307244663
20681651 13 17314210216564644128
20871999 31 8574710178945740011
21033648 29 17702929362931227856
21065199 12 18342455916012703034
21304303 282 17827889886115246597
21650355 55 18408888468824086521
22122407 14 15913338983229098499
22182313 1 17774727446529043140
22646028 28 16443061720490914594
23366157 5 17467927702216721917
23419403 2 17755836947768905461
23503958 25 18202285780015799116
23503958 8 18188206507678016754
23557571 272 18410859832595046205
23559900 14 18268165170439695142
23845131 108 17619083737598071321
312423 11 17603879909382173508
3187 122 18410569595917135369
3729539 64 8357168573243211777
469060 322 17772446105550280143
602551 16 18261396676055056986
6049 1 17987815002866961204
633830 44 14692568862498292704
81228 2 18338535044868945073
84936 182 16898777086887836877
90316 7 18410585002396849217
9981440 41 17770753780818730657

> <PUBCHEM_SHAPE_MULTIPOLES>
421.32
9.55
3.1
1.63
5.63
3.53
-0.33
-3.69
4.8
-5.28
0.15
0.72
-0.32
1.78

> <PUBCHEM_SHAPE_SELFOVERLAP>
899.9

> <PUBCHEM_SHAPE_VOLUME>
236.6

> <PUBCHEM_COORDINATE_TYPE>
2
5
10

$$$$
11322641
  -OEChem-12271619333D

 38 39  0     1  0  0  0  0  0999 V2000
    5.0880   -0.7081    0.8407 F   0  0  0  0  0  0  0  0  0  0  0  0
   -0.3593    0.3540   -2.0711 O   0  0  0  0  0  0  0  0  0  0  0  0
   -2.2093   -0.6274   -0.1031 N   0  0  0  0  0  0  0  0  0  0  0  0
   -1.2461    0.4282    0.1729 C   0  0  2  0  0  0  0  0  0  0  0  0
   -3.3424   -0.6049    0.8215 C   0  0  0  0  0  0  0  0  0  0  0  0
   -1.6301   -1.9630    0.0388 C   0  0  0  0  0  0  0  0  0  0  0  0
   -3.9823   -1.9689    0.6088 C   0  0  0  0  0  0  0  0  0  0  0  0
   -2.8561   -2.8622    0.0978 C   0  0  0  0  0  0  0  0  0  0  0  0
   -1.9343    1.7971    0.0531 C   0  0  0  0  0  0  0  0  0  0  0  0
   -0.1378    0.2722   -0.8638 C   0  0  0  0  0  0  0  0  0  0  0  0
   -0.9513    2.9560    0.2507 C   0  0  0  0  0  0  0  0  0  0  0  0
    1.2551    0.0110   -0.4094 C   0  0  0  0  0  0  0  0  0  0  0  0
   -1.6440    4.3021    0.1070 C   0  0  0  0  0  0  0  0  0  0  0  0
    1.6594    0.5082    0.8106 C   0  0  0  0  0  0  0  0  0  0  0  0
    2.0929   -0.7195   -1.2244 C   0  0  0  0  0  0  0  0  0  0  0  0
    2.9649    0.2633    1.2365 C   0  0  0  0  0  0  0  0  0  0  0  0
    3.3984   -0.9647   -0.7986 C   0  0  0  0  0  0  0  0  0  0  0  0
    3.8344   -0.4733    0.4319 C   0  0  0  0  0  0  0  0  0  0  0  0
   -0.8688    0.3103    1.1928 H   0  0  0  0  0  0  0  0  0  0  0  0
   -4.0672    0.1835    0.5964 H   0  0  0  0  0  0  0  0  0  0  0  0
   -3.0205   -0.5063    1.8662 H   0  0  0  0  0  0  0  0  0  0  0  0
   -1.0559   -2.0644    0.9690 H   0  0  0  0  0  0  0  0  0  0  0  0
   -0.9892   -2.2475   -0.8017 H   0  0  0  0  0  0  0  0  0  0  0  0
   -4.7799   -1.9135   -0.1414 H   0  0  0  0  0  0  0  0  0  0  0  0
   -4.4186   -2.3567    1.5349 H   0  0  0  0  0  0  0  0  0  0  0  0
   -2.6916   -3.7224    0.7547 H   0  0  0  0  0  0  0  0  0  0  0  0
   -3.1090   -3.2433   -0.8985 H   0  0  0  0  0  0  0  0  0  0  0  0
   -2.7244    1.9059    0.8050 H   0  0  0  0  0  0  0  0  0  0  0  0
   -2.4084    1.8987   -0.9323 H   0  0  0  0  0  0  0  0  0  0  0  0
   -0.1390    2.9079   -0.4821 H   0  0  0  0  0  0  0  0  0  0  0  0
   -0.5021    2.8959    1.2481 H   0  0  0  0  0  0  0  0  0  0  0  0
   -2.4431    4.4137    0.8468 H   0  0  0  0  0  0  0  0  0  0  0  0
   -0.9270    5.1153    0.2568 H   0  0  0  0  0  0  0  0  0  0  0  0
   -2.0808    4.4139   -0.8906 H   0  0  0  0  0  0  0  0  0  0  0  0
    1.0280    1.1087    1.4535 H   0  0  0  0  0  0  0  0  0  0  0  0
    1.7656   -1.1135   -2.1819 H   0  0  0  0  0  0  0  0  0  0  0  0
    3.3073    0.6511    2.1915 H   0  0  0  0  0  0  0  0  0  0  0  0
    4.0752   -1.5392   -1.4240 H   0  0  0  0  0  0  0  0  0  0  0  0
  1 18  1  0  0  0  0
  2 10  2  0  0  0  0
  3  4  1  0  0  0  0
  3  5  1  0  0  0  0
  3  6  1  0  0  0  0
  4  9  1  0  0  0  0
  4 10  1  0  0  0  0
  4 19  1  0  0  0  0
  5  7  1  0  0  0  0
  5 20  1  0  0  0  0
  5 21  1  0  0  0  0
  6  8  1  0  0  0  0
  6 22  1  0  0  0  0
  6 23  1  0  0  0  0
  7  8  1  0  0  0  0
  7 24  1  0  0  0  0
  7 25  1  0  0  0  0
  8 26  1  0  0  0  0
  8 27  1  0  0  0  0
  9 11  1  0  0  0  0
  9 28  1  0  0  0  0
  9 29  1  0  0  0  0
 10 12  1  0  0  0  0
 11 13  1  0  0  0  0
 11 30  1  0  0  0  0
 11 31  1  0  0  0  0
 12 14  2  0  0  0  0
 12 15  1  0  0  0  0
 13 32  1  0  0  0  0
 13 33  1  0  0  0  0
 13 34  1  0  0  0  0
 14 16  1  0  0  0  0
 14 35  1  0  0  0  0
 15 17  2  0  0  0  0
 15 36  1  0  0  0  0
 16 18  2  0  0  0  0
 16 37  1  0  0  0  0
 17 18  1  0  0  0  0
 17 38  1  0  0  0  0
M  END
> <PUBCHEM_COMPOUND_CID>
11322641

> <PUBCHEM_CONFORMER_RMSD>
0.8

> <PUBCHEM_CONFORMER_DIVERSEORDER>
1
16
20
12
24
14
13
6
21
10
22
15
17
23
4
18
5
19
8
3
7
11
9
2

> <PUBCHEM_MMFF94_PARTIAL_CHARGES>
17
1 -0.19
10 0.42
12 0.09
14 -0.15
15 -0.15
16 -0.15
17 -0.15
18 0.19
2 -0.57
3 -0.81
35 0.15
36 0.15
37 0.15
38 0.15
4 0.33
5 0.27
6 0.27

> <PUBCHEM_EFFECTIVE_ROTOR_COUNT>
6

> <PUBCHEM_PHARMACOPHORE_FEATURES>
5
1 13 hydrophobe
1 2 acceptor
1 3 cation
5 3 5 6 7 8 rings
6 12 14 15 16 17 18 rings

> <PUBCHEM_HEAVY_ATOM_COUNT>
18

> <PUBCHEM_ATOM_DEF_STEREO_COUNT>
0

> <PUBCHEM_ATOM_UDEF_STEREO_COUNT>
1

> <PUBCHEM_BOND_DEF_STEREO_COUNT>
0

> <PUBCHEM_BOND_UDEF_STEREO_COUNT>
0

> <PUBCHEM_ISOTOPIC_ATOM_COUNT>
0

> <PUBCHEM_COMPONENT_COUNT>
1

> <PUBCHEM_CACTVS_TAUTO_COUNT>
2

> <PUBCHEM_CONFORMER_ID>
00ACC51100000001

> <PUBCHEM_MMFF94_ENERGY>
35.4223

> <PUBCHEM_FEATURE_SELFOVERLAP>
25.371

> <PUBCHEM_SHAPE_FINGERPRINT>
10366900 7 18131344207179968286
11357001 24 18410290276960649169
11578080 2 17605818425670794717
11646440 116 18270975570565564673
12173636 292 18122060905720729477
12251169 10 17346041181009537255
12363563 72 18264494047380958411
12500047 106 18122627145988111092
12532896 13 17908701731044854037
12553582 1 18266757933290617391
12633257 1 17988936594879635699
12788726 201 18261692427085782305
12824470 246 17821997705858613074
13140716 1 18410298046804641497
13294875 104 16973913325988254688
13583140 156 17987213583461305546
136203 1 18338238163512364441
14178342 30 18263077722080757882
14289901 80 18335143077256185856
14787075 74 17753887517794857712
15653759 3 18273217486757167906
15885798 251 18338524131156469171
16752209 62 18113607976765199503
16945 1 18338806623618227909
17780758 139 18118662371868190754
17844478 74 18130786763427361440
17980427 26 17043155075058480941
18186145 218 13118278200594462119
18219364 16 16917058937241731528
19049666 15 17985836917066391078
19591789 44 16681475724390548556
200 152 15719386239995794278
20361792 2 17240761838864469999
20510252 161 18341897337945586097
20600515 1 18200611271146165201
20671657 53 17095521858993740599
21421861 104 17186730957440388923
21524375 3 17479730516479310181
21650355 55 18410856581505009801
23366157 5 17613725134324296421
23402539 116 18272362062927351037
23419403 2 17539934645236018637
23493267 7 18126561224573107208
23503958 8 18262231115286218898
23557571 272 18409167731766253524
23559900 14 18341905039170107686
3091708 16 8990007819653513465
5902787 121 18191871343036740523
6049 1 17917441869549192676
6442390 28 17836944299792803089
7364860 26 17763192740482351701
77188 2 18265895946355295425
81228 2 18340781351197906273
90316 7 18411709794017467697

> <PUBCHEM_SHAPE_MULTIPOLES>
352.31
7.09
3.5
1.19
5.11
4.24
-0.31
-4.8
2.25
-4.56
0.22
0.63
-0.07
0.48

> <PUBCHEM_SHAPE_SELFOVERLAP>
732.093

> <PUBCHEM_SHAPE_VOLUME>
203.4

> <PUBCHEM_COORDINATE_TYPE>
2
5
10

$$$$
115806
  -OEChem-12271618343D

 26 26  0     1  0  0  0  0  0999 V2000
   -3.8927   -0.0300    0.1796 N   0  0  0  0  0  0  0  0  0  0  0  0
   -1.5475   -0.3734    0.8234 C   0  0  0  0  0  0  0  0  0  0  0  0
   -2.5149   -0.0155   -0.3208 C   0  0  2  0  0  0  0  0  0  0  0  0
   -0.1058   -0.4255    0.4017 C   0  0  0  0  0  0  0  0  0  0  0  0
   -2.2360    1.3635   -0.9189 C   0  0  0  0  0  0  0  0  0  0  0  0
    0.6723    0.7227    0.4745 C   0  0  0  0  0  0  0  0  0  0  0  0
    0.4316   -1.6220   -0.0556 C   0  0  0  0  0  0  0  0  0  0  0  0
    2.0102    0.6737    0.0832 C   0  0  0  0  0  0  0  0  0  0  0  0
    1.7696   -1.6711   -0.4467 C   0  0  0  0  0  0  0  0  0  0  0  0
    2.5588   -0.5232   -0.3774 C   0  0  0  0  0  0  0  0  0  0  0  0
    2.8544    1.9008    0.1571 C   0  0  0  0  0  0  0  0  0  0  0  0
   -1.8264   -1.3457    1.2532 H   0  0  0  0  0  0  0  0  0  0  0  0
   -1.6557    0.3447    1.6484 H   0  0  0  0  0  0  0  0  0  0  0  0
   -2.4308   -0.7642   -1.1181 H   0  0  0  0  0  0  0  0  0  0  0  0
   -1.2772    1.3854   -1.4458 H   0  0  0  0  0  0  0  0  0  0  0  0
   -2.2275    2.1436   -0.1495 H   0  0  0  0  0  0  0  0  0  0  0  0
   -3.0012    1.6315   -1.6570 H   0  0  0  0  0  0  0  0  0  0  0  0
    0.2465    1.6553    0.8362 H   0  0  0  0  0  0  0  0  0  0  0  0
   -0.1749   -2.5213   -0.1159 H   0  0  0  0  0  0  0  0  0  0  0  0
   -4.1167   -0.9578    0.5372 H   0  0  0  0  0  0  0  0  0  0  0  0
   -4.5393    0.1445   -0.5887 H   0  0  0  0  0  0  0  0  0  0  0  0
    2.1964   -2.6028   -0.8064 H   0  0  0  0  0  0  0  0  0  0  0  0
    3.5993   -0.5739   -0.6872 H   0  0  0  0  0  0  0  0  0  0  0  0
    2.5552    2.5343    0.9990 H   0  0  0  0  0  0  0  0  0  0  0  0
    3.9099    1.6483    0.3060 H   0  0  0  0  0  0  0  0  0  0  0  0
    2.7601    2.4777   -0.7682 H   0  0  0  0  0  0  0  0  0  0  0  0
  1  3  1  0  0  0  0
  1 20  1  0  0  0  0
  1 21  1  0  0  0  0
  2  3  1  0  0  0  0
  2  4  1  0  0  0  0
  2 12  1  0  0  0  0
  2 13  1  0  0  0  0
  3  5  1  0  0  0  0
  3 14  1  0  0  0  0
  4  6  1  0  0  0  0
  4  7  2  0  0  0  0
  5 15  1  0  0  0  0
  5 16  1  0  0  0  0
  5 17  1  0  0  0  0
  6  8  2  0  0  0  0
  6 18  1  0  0  0  0
  7  9  1  0  0  0  0
  7 19  1  0  0  0  0
  8 10  1  0  0  0  0
  8 11  1  0  0  0  0
  9 10  2  0  0  0  0
  9 22  1  0  0  0  0
 10 23  1  0  0  0  0
 11 24  1  0  0  0  0
 11 25  1  0  0  0  0
 11 26  1  0  0  0  0
M  END
> <PUBCHEM_COMPOUND_CID>
115806

> <PUBCHEM_CONFORMER_RMSD>
0.4

> <PUBCHEM_CONFORMER_DIVERSEORDER>
3
21
15
10
18
16
14
2
5
20
11
17
7
6
19
22
1
9
13
12
8
4

> <PUBCHEM_MMFF94_PARTIAL_CHARGES>
16
1 -0.99
10 -0.15
11 0.14
18 0.15
19 0.15
2 0.14
20 0.36
21 0.36
22 0.15
23 0.15
3 0.27
4 -0.14
6 -0.15
7 -0.15
8 -0.14
9 -0.15

> <PUBCHEM_EFFECTIVE_ROTOR_COUNT>
2

> <PUBCHEM_PHARMACOPHORE_FEATURES>
3
1 1 cation
1 1 donor
6 4 6 7 8 9 10 rings

> <PUBCHEM_HEAVY_ATOM_COUNT>
11

> <PUBCHEM_ATOM_DEF_STEREO_COUNT>
0

> <PUBCHEM_ATOM_UDEF_STEREO_COUNT>
1

> <PUBCHEM_BOND_DEF_STEREO_COUNT>
0

> <PUBCHEM_BOND_UDEF_STEREO_COUNT>
0

> <PUBCHEM_ISOTOPIC_ATOM_COUNT>
0

> <PUBCHEM_COMPONENT_COUNT>
1

> <PUBCHEM_CACTVS_TAUTO_COUNT>
1

> <PUBCHEM_CONFORMER_ID>
0001C45E00000003

> <PUBCHEM_MMFF94_ENERGY>
17.4839

> <PUBCHEM_FEATURE_SELFOVERLAP>
15.223

> <PUBCHEM_SHAPE_FINGERPRINT>
1 1 18412825793855998398
10608611 8 18334853888170441565
11031198 65 18341618147843925973
12897270 3 18410008814995337021
12932764 1 18114184090592936107
13380535 76 18340203115397726282
13839132 238 17895187753897083853
14325111 11 18411701023414524867
14390081 3 18187642492472342437
15219456 202 18335980895983440293
15775835 57 18201157757941106933
16945 1 18342186518346878594
170605 34 18334291002329955609
17844478 74 18187658981115523065
18186145 218 18343588425409854005
19973954 147 18336826373217677973
20201158 50 18410013195640634147
20645477 70 18271804580304131135
20671657 53 18056489339781861102
21028194 46 18260828206630420380
21040471 1 18197782317826966314
21524375 3 18267016352988001320
21947302 44 18408038498595329168
22802520 49 18191301572633009861
228727 97 17131564919540923017
230 275 17603301540068806877
23402539 116 17896023481708371287
23402655 69 18343015563215369133
2748010 2 18126019388594718054
5084963 1 17967823708083287423

> <PUBCHEM_SHAPE_MULTIPOLES>
221.39
5.04
1.77
0.83
3.08
0.08
0.02
1.4
0.41
-1.23
0.2
0.21
0.05
0.59

> <PUBCHEM_SHAPE_SELFOVERLAP>
446.655

> <PUBCHEM_SHAPE_VOLUME>
130.2

> <PUBCHEM_COORDINATE_TYPE>
2
5
10

$$$$
121501
  -OEChem-12271618323D

 23 23  0     1  0  0  0  0  0999 V2000
    3.0122   -1.6092   -0.4410 F   0  0  0  0  0  0  0  0  0  0  0  0
   -3.7878   -0.7942    0.1374 N   0  0  0  0  0  0  0  0  0  0  0  0
   -2.4539   -0.4052   -0.3302 C   0  0  2  0  0  0  0  0  0  0  0  0
   -1.4935   -0.3141    0.8707 C   0  0  0  0  0  0  0  0  0  0  0  0
   -0.0832    0.0407    0.4910 C   0  0  0  0  0  0  0  0  0  0  0  0
   -2.5775    0.9168   -1.0878 C   0  0  0  0  0  0  0  0  0  0  0  0
    0.8229   -0.9703    0.1969 C   0  0  0  0  0  0  0  0  0  0  0  0
    0.2980    1.3755    0.4395 C   0  0  0  0  0  0  0  0  0  0  0  0
    2.1318   -0.6411   -0.1548 C   0  0  0  0  0  0  0  0  0  0  0  0
    1.6070    1.7047    0.0878 C   0  0  0  0  0  0  0  0  0  0  0  0
    2.5239    0.6964   -0.2094 C   0  0  0  0  0  0  0  0  0  0  0  0
   -2.0962   -1.1735   -1.0268 H   0  0  0  0  0  0  0  0  0  0  0  0
   -1.4848   -1.2709    1.4111 H   0  0  0  0  0  0  0  0  0  0  0  0
   -1.8663    0.4211    1.5978 H   0  0  0  0  0  0  0  0  0  0  0  0
   -1.6425    1.1787   -1.5922 H   0  0  0  0  0  0  0  0  0  0  0  0
   -2.8551    1.7405   -0.4206 H   0  0  0  0  0  0  0  0  0  0  0  0
   -3.3429    0.8490   -1.8701 H   0  0  0  0  0  0  0  0  0  0  0  0
    0.5277   -2.0151    0.2342 H   0  0  0  0  0  0  0  0  0  0  0  0
   -0.4049    2.1701    0.6732 H   0  0  0  0  0  0  0  0  0  0  0  0
   -3.7363   -1.6999    0.6020 H   0  0  0  0  0  0  0  0  0  0  0  0
   -4.4096   -0.9167   -0.6608 H   0  0  0  0  0  0  0  0  0  0  0  0
    1.9126    2.7460    0.0463 H   0  0  0  0  0  0  0  0  0  0  0  0
    3.5431    0.9524   -0.4832 H   0  0  0  0  0  0  0  0  0  0  0  0
  1  9  1  0  0  0  0
  2  3  1  0  0  0  0
  2 20  1  0  0  0  0
  2 21  1  0  0  0  0
  3  4  1  0  0  0  0
  3  6  1  0  0  0  0
  3 12  1  0  0  0  0
  4  5  1  0  0  0  0
  4 13  1  0  0  0  0
  4 14  1  0  0  0  0
  5  7  2  0  0  0  0
  5  8  1  0  0  0  0
  6 15  1  0  0  0  0
  6 16  1  0  0  0  0
  6 17  1  0  0  0  0
  7  9  1  0  0  0  0
  7 18  1  0  0  0  0
  8 10  2  0  0  0  0
  8 19  1  0  0  0  0
  9 11  2  0  0  0  0
 10 11  1  0  0  0  0
 10 22  1  0  0  0  0
 11 23  1  0  0  0  0
M  END
> <PUBCHEM_COMPOUND_CID>
121501

> <PUBCHEM_CONFORMER_RMSD>
0.4

> <PUBCHEM_CONFORMER_DIVERSEORDER>
3
20
9
14
17
16
6
1
5
21
15
18
13
4
11
2
12
8
19
10
7

> <PUBCHEM_MMFF94_PARTIAL_CHARGES>
16
1 -0.19
10 -0.15
11 -0.15
18 0.15
19 0.15
2 -0.99
20 0.36
21 0.36
22 0.15
23 0.15
3 0.27
4 0.14
5 -0.14
7 -0.15
8 -0.15
9 0.19

> <PUBCHEM_EFFECTIVE_ROTOR_COUNT>
2

> <PUBCHEM_PHARMACOPHORE_FEATURES>
3
1 2 cation
1 2 donor
6 5 7 8 9 10 11 rings

> <PUBCHEM_HEAVY_ATOM_COUNT>
11

> <PUBCHEM_ATOM_DEF_STEREO_COUNT>
0

> <PUBCHEM_ATOM_UDEF_STEREO_COUNT>
1

> <PUBCHEM_BOND_DEF_STEREO_COUNT>
0

> <PUBCHEM_BOND_UDEF_STEREO_COUNT>
0

> <PUBCHEM_ISOTOPIC_ATOM_COUNT>
0

> <PUBCHEM_COMPONENT_COUNT>
1

> <PUBCHEM_CACTVS_TAUTO_COUNT>
1

> <PUBCHEM_CONFORMER_ID>
0001DA9D00000003

> <PUBCHEM_MMFF94_ENERGY>
14.9942

> <PUBCHEM_FEATURE_SELFOVERLAP>
15.223

> <PUBCHEM_SHAPE_FINGERPRINT>
12897270 3 18334007311456107701
12932764 1 17822006493530453499
14128692 85 18202566155100632034
15310529 11 18342172306347393621
15477762 27 18341894138168589583
15775835 57 18270121360686737949
16945 1 18341339993156588008
17844478 74 18040724696802612825
18186145 218 18113614552191103765
19973954 147 18333729130682740669
20201158 50 18408041835658415106
20645477 70 18341890801454027343
20653085 51 17531536394828703829
20671657 53 18341058402400324758
22802520 49 18261948557714024861
23402539 116 17532355647044937791
23402655 69 18411412926020471037
23552423 10 18335987488657863578
2748010 2 18408606980445665144
5084963 1 18113339729976407233
63268167 104 18342178894526603808

> <PUBCHEM_SHAPE_MULTIPOLES>
214.12
5.01
1.54
0.86
2.67
0.21
0.03
-1.07
1
-0.86
0.08
0.31
0.08
0.51

> <PUBCHEM_SHAPE_SELFOVERLAP>
435.559

> <PUBCHEM_SHAPE_VOLUME>
125.5

> <PUBCHEM_COORDINATE_TYPE>
2
5
10

$$$$
12198617
  -OEChem-12271619453D

 22 22  0     1  0  0  0  0  0999 V2000
    1.9983   -1.2430   -0.5567 S   0  0  0  0  0  0  0  0  0  0  0  0
   -0.9109   -1.3545   -0.9773 O   0  0  0  0  0  0  0  0  0  0  0  0
   -2.8260   -0.0105    0.3682 N   0  0  0  0  0  0  0  0  0  0  0  0
   -1.5942    0.7069    0.0286 C   0  0  1  0  0  0  0  0  0  0  0  0
   -0.5491   -0.3325   -0.3873 C   0  0  0  0  0  0  0  0  0  0  0  0
   -1.8671    1.6710   -1.1187 C   0  0  0  0  0  0  0  0  0  0  0  0
    0.8715   -0.0762   -0.0838 C   0  0  0  0  0  0  0  0  0  0  0  0
   -2.5908   -0.9466    1.4550 C   0  0  0  0  0  0  0  0  0  0  0  0
    1.3918    1.0003    0.5388 C   0  0  0  0  0  0  0  0  0  0  0  0
    2.8075    0.8789    0.6444 C   0  0  0  0  0  0  0  0  0  0  0  0
    3.2691   -0.2940    0.0889 C   0  0  0  0  0  0  0  0  0  0  0  0
   -1.2657    1.2675    0.9088 H   0  0  0  0  0  0  0  0  0  0  0  0
   -2.2089    1.1431   -2.0166 H   0  0  0  0  0  0  0  0  0  0  0  0
   -0.9568    2.2165   -1.3907 H   0  0  0  0  0  0  0  0  0  0  0  0
   -2.6301    2.4076   -0.8443 H   0  0  0  0  0  0  0  0  0  0  0  0
   -3.5379    0.6629    0.6508 H   0  0  0  0  0  0  0  0  0  0  0  0
   -1.9796   -1.8083    1.1739 H   0  0  0  0  0  0  0  0  0  0  0  0
   -3.5547   -1.3544    1.7790 H   0  0  0  0  0  0  0  0  0  0  0  0
   -2.1422   -0.4564    2.3260 H   0  0  0  0  0  0  0  0  0  0  0  0
    0.8415    1.8541    0.9099 H   0  0  0  0  0  0  0  0  0  0  0  0
    3.4547    1.6152    1.1030 H   0  0  0  0  0  0  0  0  0  0  0  0
    4.2918   -0.6388    0.0307 H   0  0  0  0  0  0  0  0  0  0  0  0
  1  7  1  0  0  0  0
  1 11  1  0  0  0  0
  2  5  2  0  0  0  0
  3  4  1  0  0  0  0
  3  8  1  0  0  0  0
  3 16  1  0  0  0  0
  4  5  1  0  0  0  0
  4  6  1  0  0  0  0
  4 12  1  0  0  0  0
  5  7  1  0  0  0  0
  6 13  1  0  0  0  0
  6 14  1  0  0  0  0
  6 15  1  0  0  0  0
  7  9  2  0  0  0  0
  8 17  1  0  0  0  0
  8 18  1  0  0  0  0
  8 19  1  0  0  0  0
  9 10  1  0  0  0  0
  9 20  1  0  0  0  0
 10 11  2  0  0  0  0
 10 21  1  0  0  0  0
 11 22  1  0  0  0  0
M  END
> <PUBCHEM_COMPOUND_CID>
12198617

> <PUBCHEM_CONFORMER_RMSD>
0.6

> <PUBCHEM_CONFORMER_DIVERSEORDER>
1
25
3
36
24
21
17
31
18
38
5
27
33
20
30
23
10
34
12
37
4
22
19
2
29
14
11
16
26
6
9
32
13
8
15
28
7
35
39

> <PUBCHEM_MMFF94_PARTIAL_CHARGES>
14
1 -0.08
10 -0.15
11 -0.11
16 0.36
2 -0.57
20 0.15
21 0.15
22 0.15
3 -0.9
4 0.33
5 0.59
7 -0.05
8 0.27
9 -0.15

> <PUBCHEM_EFFECTIVE_ROTOR_COUNT>
3

> <PUBCHEM_PHARMACOPHORE_FEATURES>
4
1 2 acceptor
1 3 cation
1 3 donor
5 1 7 9 10 11 rings

> <PUBCHEM_HEAVY_ATOM_COUNT>
11

> <PUBCHEM_ATOM_DEF_STEREO_COUNT>
0

> <PUBCHEM_ATOM_UDEF_STEREO_COUNT>
1

> <PUBCHEM_BOND_DEF_STEREO_COUNT>
0

> <PUBCHEM_BOND_UDEF_STEREO_COUNT>
0

> <PUBCHEM_ISOTOPIC_ATOM_COUNT>
0

> <PUBCHEM_COMPONENT_COUNT>
1

> <PUBCHEM_CACTVS_TAUTO_COUNT>
2

> <PUBCHEM_CONFORMER_ID>
00BA22D900000001

> <PUBCHEM_MMFF94_ENERGY>
16.2137

> <PUBCHEM_FEATURE_SELFOVERLAP>
20.297

> <PUBCHEM_SHAPE_FINGERPRINT>
10857977 72 18114468941329272497
124424 183 18191852453965426626
12932764 1 18341889706115592558
13380535 21 18059585749151041846
13380536 127 17385445423012251756
14128692 85 15213873755901700619
14325111 11 18202281394294656801
15310529 11 18187085040124402852
15775835 57 18059856194255850354
16945 1 17989201517394920860
17844478 74 18335991921032620401
20715346 28 18410291385067473324
23235685 24 17489869336489144512
23402539 116 18113327610327622133
2748010 2 18198905803687973084
3248919 1 17531240647712351446
369184 2 17917705812078965245
5084963 1 18334587806039735701

> <PUBCHEM_SHAPE_MULTIPOLES>
219.37
4.88
1.48
1.11
0.8
0.16
0.08
-0.08
1.05
-0.38
-0.23
-0.48
-0.11
0.99

> <PUBCHEM_SHAPE_SELFOVERLAP>
432.716

> <PUBCHEM_SHAPE_VOLUME>
132.9

> <PUBCHEM_COORDINATE_TYPE>
2
5
10

$$$$
123692
  -OEChem-12271619493D

 46 49  0     0  0  0  0  0  0999 V2000
    1.1541    0.4080   -1.5167 S   0  0  0  0  0  0  0  0  0  0  0  0
   -1.8436   -0.5768   -0.0071 N   0  0  0  0  0  0  0  0  0  0  0  0
   -1.1919    0.7325   -0.0258 C   0  0  0  0  0  0  0  0  0  0  0  0
   -1.7327    1.4860   -1.2746 C   0  0  0  0  0  0  0  0  0  0  0  0
   -1.6234    1.5271    1.2400 C   0  0  0  0  0  0  0  0  0  0  0  0
   -3.2320    1.7923   -1.2177 C   0  0  0  0  0  0  0  0  0  0  0  0
   -3.1199    1.8475    1.2953 C   0  0  0  0  0  0  0  0  0  0  0  0
   -3.5936    2.5687    0.0411 C   0  0  0  0  0  0  0  0  0  0  0  0
   -1.4624   -1.3577   -1.1924 C   0  0  0  0  0  0  0  0  0  0  0  0
   -1.5155   -1.2967    1.2315 C   0  0  0  0  0  0  0  0  0  0  0  0
    0.3383    0.5445   -0.0314 C   0  0  0  0  0  0  0  0  0  0  0  0
   -2.1739   -2.7114   -1.2134 C   0  0  0  0  0  0  0  0  0  0  0  0
   -2.2289   -2.6484    1.2896 C   0  0  0  0  0  0  0  0  0  0  0  0
   -1.9079   -3.4978    0.0652 C   0  0  0  0  0  0  0  0  0  0  0  0
    1.1843    0.4672    1.0422 C   0  0  0  0  0  0  0  0  0  0  0  0
    2.5546    0.2898    0.6535 C   0  0  0  0  0  0  0  0  0  0  0  0
    2.6834    0.2397   -0.7380 C   0  0  0  0  0  0  0  0  0  0  0  0
    3.7261    0.1655    1.4391 C   0  0  0  0  0  0  0  0  0  0  0  0
    3.9381    0.0709   -1.3559 C   0  0  0  0  0  0  0  0  0  0  0  0
    4.9721   -0.0021    0.8292 C   0  0  0  0  0  0  0  0  0  0  0  0
    5.0746   -0.0488   -0.5538 C   0  0  0  0  0  0  0  0  0  0  0  0
   -1.5063    1.0263   -2.2401 H   0  0  0  0  0  0  0  0  0  0  0  0
   -1.2127    2.4557   -1.3258 H   0  0  0  0  0  0  0  0  0  0  0  0
   -1.0934    2.4926    1.2197 H   0  0  0  0  0  0  0  0  0  0  0  0
   -1.3105    1.0895    2.1925 H   0  0  0  0  0  0  0  0  0  0  0  0
   -3.8119    0.8632   -1.2643 H   0  0  0  0  0  0  0  0  0  0  0  0
   -3.5146    2.3822   -2.0976 H   0  0  0  0  0  0  0  0  0  0  0  0
   -3.3224    2.4765    2.1700 H   0  0  0  0  0  0  0  0  0  0  0  0
   -3.6980    0.9263    1.4331 H   0  0  0  0  0  0  0  0  0  0  0  0
   -3.1384    3.5660   -0.0008 H   0  0  0  0  0  0  0  0  0  0  0  0
   -4.6784    2.7165    0.0862 H   0  0  0  0  0  0  0  0  0  0  0  0
   -0.4032   -1.6211   -1.2105 H   0  0  0  0  0  0  0  0  0  0  0  0
   -1.7320   -0.8867   -2.1390 H   0  0  0  0  0  0  0  0  0  0  0  0
   -1.8572   -0.7773    2.1292 H   0  0  0  0  0  0  0  0  0  0  0  0
   -0.4467   -1.5037    1.3416 H   0  0  0  0  0  0  0  0  0  0  0  0
   -1.8410   -3.2951   -2.0795 H   0  0  0  0  0  0  0  0  0  0  0  0
   -3.2543   -2.5567   -1.3291 H   0  0  0  0  0  0  0  0  0  0  0  0
   -3.3134   -2.4897    1.3492 H   0  0  0  0  0  0  0  0  0  0  0  0
   -1.9351   -3.1864    2.1983 H   0  0  0  0  0  0  0  0  0  0  0  0
   -2.5085   -4.4139    0.0751 H   0  0  0  0  0  0  0  0  0  0  0  0
   -0.8545   -3.8024    0.0963 H   0  0  0  0  0  0  0  0  0  0  0  0
    0.8704    0.5304    2.0764 H   0  0  0  0  0  0  0  0  0  0  0  0
    3.6617    0.2000    2.5239 H   0  0  0  0  0  0  0  0  0  0  0  0
    4.0278    0.0333   -2.4378 H   0  0  0  0  0  0  0  0  0  0  0  0
    5.8636   -0.0963    1.4428 H   0  0  0  0  0  0  0  0  0  0  0  0
    6.0478   -0.1794   -1.0191 H   0  0  0  0  0  0  0  0  0  0  0  0
  1 11  1  0  0  0  0
  1 17  1  0  0  0  0
  2  3  1  0  0  0  0
  2  9  1  0  0  0  0
  2 10  1  0  0  0  0
  3  4  1  0  0  0  0
  3  5  1  0  0  0  0
  3 11  1  0  0  0  0
  4  6  1  0  0  0  0
  4 22  1  0  0  0  0
  4 23  1  0  0  0  0
  5  7  1  0  0  0  0
  5 24  1  0  0  0  0
  5 25  1  0  0  0  0
  6  8  1  0  0  0  0
  6 26  1  0  0  0  0
  6 27  1  0  0  0  0
  7  8  1  0  0  0  0
  7 28  1  0  0  0  0
  7 29  1  0  0  0  0
  8 30  1  0  0  0  0
  8 31  1  0  0  0  0
  9 12  1  0  0  0  0
  9 32  1  0  0  0  0
  9 33  1  0  0  0  0
 10 13  1  0  0  0  0
 10 34  1  0  0  0  0
 10 35  1  0  0  0  0
 11 15  2  0  0  0  0
 12 14  1  0  0  0  0
 12 36  1  0  0  0  0
 12 37  1  0  0  0  0
 13 14  1  0  0  0  0
 13 38  1  0  0  0  0
 13 39  1  0  0  0  0
 14 40  1  0  0  0  0
 14 41  1  0  0  0  0
 15 16  1  0  0  0  0
 15 42  1  0  0  0  0
 16 17  1  0  0  0  0
 16 18  2  0  0  0  0
 17 19  2  0  0  0  0
 18 20  1  0  0  0  0
 18 43  1  0  0  0  0
 19 21  1  0  0  0  0
 19 44  1  0  0  0  0
 20 21  2  0  0  0  0
 20 45  1  0  0  0  0
 21 46  1  0  0  0  0
M  END
> <PUBCHEM_COMPOUND_CID>
123692

> <PUBCHEM_CONFORMER_RMSD>
0.6

> <PUBCHEM_CONFORMER_DIVERSEORDER>
2
7
10
8
1
9
5
3
6
4
11

> <PUBCHEM_MMFF94_PARTIAL_CHARGES>
17
1 -0.08
10 0.27
11 -0.14
15 -0.15
17 0.04
18 -0.15
19 -0.15
2 -0.81
20 -0.15
21 -0.15
3 0.45
42 0.15
43 0.15
44 0.15
45 0.15
46 0.15
9 0.27

> <PUBCHEM_EFFECTIVE_ROTOR_COUNT>
4.4

> <PUBCHEM_PHARMACOPHORE_FEATURES>
5
1 2 cation
5 1 11 15 16 17 rings
6 16 17 18 19 20 21 rings
6 2 9 10 12 13 14 rings
6 3 4 5 6 7 8 rings

> <PUBCHEM_HEAVY_ATOM_COUNT>
21

> <PUBCHEM_ATOM_DEF_STEREO_COUNT>
0

> <PUBCHEM_ATOM_UDEF_STEREO_COUNT>
0

> <PUBCHEM_BOND_DEF_STEREO_COUNT>
0

> <PUBCHEM_BOND_UDEF_STEREO_COUNT>
0

> <PUBCHEM_ISOTOPIC_ATOM_COUNT>
0

> <PUBCHEM_COMPONENT_COUNT>
1

> <PUBCHEM_CACTVS_TAUTO_COUNT>
1

> <PUBCHEM_CONFORMER_ID>
0001E32C00000002

> <PUBCHEM_MMFF94_ENERGY>
49.5453

> <PUBCHEM_FEATURE_SELFOVERLAP>
25.434

> <PUBCHEM_SHAPE_FINGERPRINT>
107951 10 18115323167217317386
11405975 8 18412541003728888408
11796584 16 18341900633240959254
121448 382 18271515413014495949
12346177 29 18410569600269481846
12363563 72 18052535770450919342
12500047 106 18412543176496913260
12553582 1 18047761673841256026
12616971 3 17240203223461146556
12633257 1 16987180406946062354
12643181 29 18196945379627050054
12714826 92 18341622571755231898
12788726 201 18190470530900132259
13004483 165 18123472945313435743
13135754 10 17970938689129232651
13149001 5 18270662264784707449
13224815 77 15770060557893307288
133893 2 17543905703462889993
13583140 156 17917421047858893522
13681431 1 17472697409063710783
13931106 250 18201713007113437039
14178342 30 18410289216494227706
14289901 80 18200312242759097232
14468879 13 16770660136207767536
15163728 17 17901670358628218597
15309172 13 18190181191938724261
15375358 24 17632572717681632804
16752209 62 18335687386513978859
16945 1 18410579526281690223
1813 80 17908432698736222823
20645476 183 18335137553458920037
20645477 70 16056599795130925100
20681677 76 17774145933674227552
21033648 29 18265601096687492600
21452121 199 17761207017712958311
21731516 1 18120942972951898818
22224240 67 18341060614836445049
22907989 373 18338802333120187429
2306618 200 13686295760042612633
23419403 2 15479542209529000095
23557571 272 18272079556789529528
23559900 14 18202006483082873150
23598288 3 18043271182569402807
23728640 28 18334857220933149123
3027735 51 18341325665135860095
312423 11 18042978747142244572
3380486 145 17412448509773474935
3759504 43 18337675217906449801
4015057 19 17417797436232178400
4340502 62 18198075681590046961
463206 1 17758664929867085874
4921388 177 18411983572275542854
559249 180 18262792965786125306
59755656 520 18269554953548575637
6049 1 17917433198015594368
7615 1 17822573923287868860
81228 2 18337948021454680427
9709674 26 17418088811087127740
9981440 41 17346021286974080358

> <PUBCHEM_SHAPE_MULTIPOLES>
431.04
8.12
2.98
1.67
10.99
2.45
0.05
-1.89
-0.33
-5.43
-0.08
-0.01
-0.02
0.02

> <PUBCHEM_SHAPE_SELFOVERLAP>
916.054

> <PUBCHEM_SHAPE_VOLUME>
242

> <PUBCHEM_COORDINATE_TYPE>
2
5
10

$$$$
126112
  -OEChem-12271619473D

 43 45  0     1  0  0  0  0  0999 V2000
   -6.4570    0.9086   -0.1992 F   0  0  0  0  0  0  0  0  0  0  0  0
   -0.3852   -0.2293    0.4175 O   0  0  0  0  0  0  0  0  0  0  0  0
    2.3313    2.8030    0.3317 O   0  0  0  0  0  0  0  0  0  0  0  0
    0.6146    1.7709   -0.8190 O   0  0  0  0  0  0  0  0  0  0  0  0
   -1.0697   -2.4100    0.1431 O   0  0  0  0  0  0  0  0  0  0  0  0
    3.5038   -0.2496   -0.8243 N   0  0  2  0  0  0  0  0  0  0  0  0
    3.3839    0.2078    0.5762 C   0  0  1  0  0  0  0  0  0  0  0  0
    2.9403   -1.6102   -0.7743 C   0  0  1  0  0  0  0  0  0  0  0  0
    1.8942    0.5531    0.8259 C   0  0  2  0  0  0  0  0  0  0  0  0
    3.8242   -1.0078    1.4024 C   0  0  0  0  0  0  0  0  0  0  0  0
    3.5212   -2.2143    0.5090 C   0  0  0  0  0  0  0  0  0  0  0  0
    1.4094   -1.4436   -0.6952 C   0  0  0  0  0  0  0  0  0  0  0  0
    0.9689   -0.6462    0.5429 C   0  0  2  0  0  0  0  0  0  0  0  0
    4.8786   -0.2207   -1.3166 C   0  0  0  0  0  0  0  0  0  0  0  0
    1.5177    1.7585    0.0065 C   0  0  0  0  0  0  0  0  0  0  0  0
   -1.3105   -1.2152    0.2198 C   0  0  0  0  0  0  0  0  0  0  0  0
    2.0821    4.0207   -0.3777 C   0  0  0  0  0  0  0  0  0  0  0  0
   -2.6785   -0.6500    0.1076 C   0  0  0  0  0  0  0  0  0  0  0  0
   -3.6098   -1.3065   -0.6708 C   0  0  0  0  0  0  0  0  0  0  0  0
   -2.9775    0.5139    0.7863 C   0  0  0  0  0  0  0  0  0  0  0  0
   -4.8957   -0.7762   -0.7751 C   0  0  0  0  0  0  0  0  0  0  0  0
   -4.2634    1.0441    0.6820 C   0  0  0  0  0  0  0  0  0  0  0  0
   -5.2226    0.3991   -0.0987 C   0  0  0  0  0  0  0  0  0  0  0  0
    4.0213    1.0741    0.7871 H   0  0  0  0  0  0  0  0  0  0  0  0
    3.1893   -2.2059   -1.6599 H   0  0  0  0  0  0  0  0  0  0  0  0
    1.7431    0.8470    1.8739 H   0  0  0  0  0  0  0  0  0  0  0  0
    3.3098   -1.0748    2.3667 H   0  0  0  0  0  0  0  0  0  0  0  0
    4.9006   -0.9671    1.6076 H   0  0  0  0  0  0  0  0  0  0  0  0
    4.4523   -2.7528    0.2960 H   0  0  0  0  0  0  0  0  0  0  0  0
    2.8377   -2.9194    0.9930 H   0  0  0  0  0  0  0  0  0  0  0  0
    0.9857   -2.4516   -0.7013 H   0  0  0  0  0  0  0  0  0  0  0  0
    1.0396   -0.9565   -1.6075 H   0  0  0  0  0  0  0  0  0  0  0  0
    1.0207   -1.3081    1.4185 H   0  0  0  0  0  0  0  0  0  0  0  0
    5.2517    0.8093   -1.3253 H   0  0  0  0  0  0  0  0  0  0  0  0
    4.9130   -0.5751   -2.3527 H   0  0  0  0  0  0  0  0  0  0  0  0
    5.5746   -0.8277   -0.7287 H   0  0  0  0  0  0  0  0  0  0  0  0
    1.0672    4.3761   -0.1753 H   0  0  0  0  0  0  0  0  0  0  0  0
    2.2327    3.8706   -1.4510 H   0  0  0  0  0  0  0  0  0  0  0  0
    2.7939    4.7716   -0.0248 H   0  0  0  0  0  0  0  0  0  0  0  0
   -3.3665   -2.2203   -1.2047 H   0  0  0  0  0  0  0  0  0  0  0  0
   -2.2525    1.0278    1.4102 H   0  0  0  0  0  0  0  0  0  0  0  0
   -5.6426   -1.2775   -1.3836 H   0  0  0  0  0  0  0  0  0  0  0  0
   -4.5192    1.9577    1.2106 H   0  0  0  0  0  0  0  0  0  0  0  0
  1 23  1  0  0  0  0
  2 13  1  0  0  0  0
  2 16  1  0  0  0  0
  3 15  1  0  0  0  0
  3 17  1  0  0  0  0
  4 15  2  0  0  0  0
  5 16  2  0  0  0  0
  6  7  1  0  0  0  0
  6  8  1  0  0  0  0
  6 14  1  0  0  0  0
  7  9  1  0  0  0  0
  7 10  1  0  0  0  0
  7 24  1  0  0  0  0
  8 11  1  0  0  0  0
  8 12  1  0  0  0  0
  8 25  1  0  0  0  0
  9 13  1  0  0  0  0
  9 15  1  0  0  0  0
  9 26  1  0  0  0  0
 10 11  1  0  0  0  0
 10 27  1  0  0  0  0
 10 28  1  0  0  0  0
 11 29  1  0  0  0  0
 11 30  1  0  0  0  0
 12 13  1  0  0  0  0
 12 31  1  0  0  0  0
 12 32  1  0  0  0  0
 13 33  1  0  0  0  0
 14 34  1  0  0  0  0
 14 35  1  0  0  0  0
 14 36  1  0  0  0  0
 16 18  1  0  0  0  0
 17 37  1  0  0  0  0
 17 38  1  0  0  0  0
 17 39  1  0  0  0  0
 18 19  2  0  0  0  0
 18 20  1  0  0  0  0
 19 21  1  0  0  0  0
 19 40  1  0  0  0  0
 20 22  2  0  0  0  0
 20 41  1  0  0  0  0
 21 23  2  0  0  0  0
 21 42  1  0  0  0  0
 22 23  1  0  0  0  0
 22 43  1  0  0  0  0
M  END
> <PUBCHEM_COMPOUND_CID>
126112

> <PUBCHEM_CONFORMER_RMSD>
0.8

> <PUBCHEM_CONFORMER_DIVERSEORDER>
1
16
12
8
17
14
15
3
9
6
7
10
5
2
4
11
13

> <PUBCHEM_MMFF94_PARTIAL_CHARGES>
24
1 -0.19
13 0.28
14 0.27
15 0.66
16 0.63
17 0.28
18 0.09
19 -0.15
2 -0.43
20 -0.15
21 -0.15
22 -0.15
23 0.19
3 -0.43
4 -0.57
40 0.15
41 0.15
42 0.15
43 0.15
5 -0.57
6 -0.81
7 0.27
8 0.27
9 0.06

> <PUBCHEM_EFFECTIVE_ROTOR_COUNT>
6.2

> <PUBCHEM_PHARMACOPHORE_FEATURES>
5
1 4 acceptor
1 5 acceptor
1 6 cation
6 18 19 20 21 22 23 rings
8 6 7 8 9 10 11 12 13 rings

> <PUBCHEM_HEAVY_ATOM_COUNT>
23

> <PUBCHEM_ATOM_DEF_STEREO_COUNT>
4

> <PUBCHEM_ATOM_UDEF_STEREO_COUNT>
0

> <PUBCHEM_BOND_DEF_STEREO_COUNT>
0

> <PUBCHEM_BOND_UDEF_STEREO_COUNT>
0

> <PUBCHEM_ISOTOPIC_ATOM_COUNT>
0

> <PUBCHEM_COMPONENT_COUNT>
1

> <PUBCHEM_CACTVS_TAUTO_COUNT>
1

> <PUBCHEM_CONFORMER_ID>
0001ECA000000001

> <PUBCHEM_MMFF94_ENERGY>
63.9558

> <PUBCHEM_FEATURE_SELFOVERLAP>
25.371

> <PUBCHEM_SHAPE_FINGERPRINT>
10906281 52 18261965136809884000
10937287 8 17615970349426473260
11405975 8 18409448116016560555
116883 192 18270123409486585448
12011746 2 18343028770128969710
12166972 35 18202846543646017033
12553582 1 18409451362705575560
12617007 42 18272664428403560500
12633257 1 18335412478399540106
128620 24 10879991354913385787
13134695 92 18334855004898498108
13140716 1 18262233455557871066
13583140 156 18041285447543258339
14466204 15 18191296083733377433
15163728 17 17464836935939079860
15196674 1 18339640144259501833
15210252 30 18187379718179163972
15238133 3 18261108578433558266
15420108 30 17982994933486634520
15475509 8 17985009027691770540
15664445 248 18342190955607083236
15848700 24 18342175531894135022
1601671 61 18412831270186986734
17349148 13 18060138726142954939
17492 89 18268709583620851623
17818456 19 17846505785930148945
17844677 252 18410578426918041539
17980427 23 17914305083118466424
18186145 218 18335974333706000087
18222031 100 18272373031936325042
18335252 114 18265039247062785685
18681886 176 17988922318793205082
21033648 144 18262226845972357421
21033648 29 17023168441099852245
212847 35 18186519882215218339
21285901 2 18267591199689752638
21478907 32 17977382729437913474
21503847 285 18335420183839979001
21709351 56 18341323444937643287
21860390 5 18341333391660271524
221357 26 18409445848062922565
22289505 5 18408884005867977372
22393880 68 18126294270580144188
2255824 54 18410855507763374138
23557571 272 16271938060418766481
23558518 356 17753611552770947875
23559900 14 18202561808440806379
3004659 81 18202282507181744985
3060560 45 18131074840091001718
3411729 13 18129366268004665520
345986 75 17534600643788929634
34797466 226 16630803326801891867
34934 24 18410009970742778018
474 4 18336823216453430921
5104073 3 18338517542908648907
542803 24 17603868888633417023
543358 83 18410859884329605060
5895379 119 17702402687797165873
5939293 188 18410855490720583528
633830 44 18337100263741053847
67856867 119 18199457926065946377
7164475 11 18046348527175245390
7495541 125 18114467837370034627
84936 182 18055635276660481896
8509985 295 18261387810873072026
9709674 26 18268711782633102827
9971528 1 18343581820093011706
9981440 41 17761485198455359777

> <PUBCHEM_SHAPE_MULTIPOLES>
437.6
11.2
2.9
1.06
13.82
2.98
0.01
-0.41
1.29
-2.69
0.29
-0.75
-0.14
-0.59

> <PUBCHEM_SHAPE_SELFOVERLAP>
941.474

> <PUBCHEM_SHAPE_VOLUME>
242.7

> <PUBCHEM_COORDINATE_TYPE>
2
5
10

$$$$
127024
  -OEChem-12271619503D

 37 39  0     1  0  0  0  0  0999 V2000
    4.2432   -1.7779   -1.4482 Cl  0  0  0  0  0  0  0  0  0  0  0  0
    5.2183    0.4963    0.6384 Cl  0  0  0  0  0  0  0  0  0  0  0  0
   -1.2918    1.9581    0.1959 O   0  0  0  0  0  0  0  0  0  0  0  0
   -0.3970    1.9580   -1.9338 O   0  0  0  0  0  0  0  0  0  0  0  0
   -3.2918    0.3041    0.4595 N   0  0  0  0  0  0  0  0  0  0  0  0
   -2.8747   -0.1560   -0.8780 C   0  0  1  0  0  0  0  0  0  0  0  0
   -2.8650   -0.8018    1.3311 C   0  0  2  0  0  0  0  0  0  0  0  0
   -1.3357   -0.0605   -0.9981 C   0  0  2  0  0  0  0  0  0  0  0  0
   -0.6080   -0.8731    0.1062 C   0  0  2  0  0  0  0  0  0  0  0  0
   -1.3323   -0.7296    1.4671 C   0  0  0  0  0  0  0  0  0  0  0  0
   -3.3783   -1.6010   -0.8947 C   0  0  0  0  0  0  0  0  0  0  0  0
   -3.3572   -2.0343    0.5733 C   0  0  0  0  0  0  0  0  0  0  0  0
    0.8453   -0.5444    0.2281 C   0  0  0  0  0  0  0  0  0  0  0  0
   -0.9438    1.3942   -0.9956 C   0  0  0  0  0  0  0  0  0  0  0  0
    1.7770   -1.2166   -0.5598 C   0  0  0  0  0  0  0  0  0  0  0  0
    1.2623    0.4339    1.1279 C   0  0  0  0  0  0  0  0  0  0  0  0
    3.1329   -0.9087   -0.4473 C   0  0  0  0  0  0  0  0  0  0  0  0
    2.6180    0.7418    1.2403 C   0  0  0  0  0  0  0  0  0  0  0  0
    3.5533    0.0706    0.4526 C   0  0  0  0  0  0  0  0  0  0  0  0
   -0.9746    3.3466    0.3351 C   0  0  0  0  0  0  0  0  0  0  0  0
   -3.3539    0.4436   -1.6601 H   0  0  0  0  0  0  0  0  0  0  0  0
   -3.3273   -0.7283    2.3209 H   0  0  0  0  0  0  0  0  0  0  0  0
   -1.0327   -0.4607   -1.9757 H   0  0  0  0  0  0  0  0  0  0  0  0
   -0.6802   -1.9358   -0.1662 H   0  0  0  0  0  0  0  0  0  0  0  0
   -0.9932   -1.5335    2.1347 H   0  0  0  0  0  0  0  0  0  0  0  0
   -1.1295    0.2021    1.9991 H   0  0  0  0  0  0  0  0  0  0  0  0
   -2.7690   -2.2567   -1.5249 H   0  0  0  0  0  0  0  0  0  0  0  0
   -4.4084   -1.6430   -1.2694 H   0  0  0  0  0  0  0  0  0  0  0  0
   -4.3749   -2.2969    0.8867 H   0  0  0  0  0  0  0  0  0  0  0  0
   -2.7235   -2.9122    0.7341 H   0  0  0  0  0  0  0  0  0  0  0  0
   -4.3107    0.3652    0.4816 H   0  0  0  0  0  0  0  0  0  0  0  0
    1.4442   -1.9776   -1.2622 H   0  0  0  0  0  0  0  0  0  0  0  0
    0.5955    1.0141    1.7514 H   0  0  0  0  0  0  0  0  0  0  0  0
    2.9286    1.5118    1.9423 H   0  0  0  0  0  0  0  0  0  0  0  0
    0.1021    3.5049    0.2209 H   0  0  0  0  0  0  0  0  0  0  0  0
   -1.2707    3.6632    1.3387 H   0  0  0  0  0  0  0  0  0  0  0  0
   -1.5323    3.9356   -0.3990 H   0  0  0  0  0  0  0  0  0  0  0  0
  1 17  1  0  0  0  0
  2 19  1  0  0  0  0
  3 14  1  0  0  0  0
  3 20  1  0  0  0  0
  4 14  2  0  0  0  0
  5  6  1  0  0  0  0
  5  7  1  0  0  0  0
  5 31  1  0  0  0  0
  6  8  1  0  0  0  0
  6 11  1  0  0  0  0
  6 21  1  0  0  0  0
  7 10  1  0  0  0  0
  7 12  1  0  0  0  0
  7 22  1  0  0  0  0
  8  9  1  0  0  0  0
  8 14  1  0  0  0  0
  8 23  1  0  0  0  0
  9 10  1  0  0  0  0
  9 13  1  0  0  0  0
  9 24  1  0  0  0  0
 10 25  1  0  0  0  0
 10 26  1  0  0  0  0
 11 12  1  0  0  0  0
 11 27  1  0  0  0  0
 11 28  1  0  0  0  0
 12 29  1  0  0  0  0
 12 30  1  0  0  0  0
 13 15  2  0  0  0  0
 13 16  1  0  0  0  0
 15 17  1  0  0  0  0
 15 32  1  0  0  0  0
 16 18  2  0  0  0  0
 16 33  1  0  0  0  0
 17 19  2  0  0  0  0
 18 19  1  0  0  0  0
 18 34  1  0  0  0  0
 20 35  1  0  0  0  0
 20 36  1  0  0  0  0
 20 37  1  0  0  0  0
M  END
> <PUBCHEM_COMPOUND_CID>
127024

> <PUBCHEM_CONFORMER_RMSD>
0.6

> <PUBCHEM_CONFORMER_DIVERSEORDER>
1
4
8
5
7
6
3
2

> <PUBCHEM_MMFF94_PARTIAL_CHARGES>
21
1 -0.18
13 -0.14
14 0.66
15 -0.15
16 -0.15
17 0.18
18 -0.15
19 0.18
2 -0.18
20 0.28
3 -0.43
31 0.36
32 0.15
33 0.15
34 0.15
4 -0.57
5 -0.9
6 0.27
7 0.27
8 0.06
9 0.14

> <PUBCHEM_EFFECTIVE_ROTOR_COUNT>
4.2

> <PUBCHEM_PHARMACOPHORE_FEATURES>
5
1 4 acceptor
1 5 cation
1 5 donor
6 13 15 16 17 18 19 rings
8 5 6 7 8 9 10 11 12 rings

> <PUBCHEM_HEAVY_ATOM_COUNT>
20

> <PUBCHEM_ATOM_DEF_STEREO_COUNT>
4

> <PUBCHEM_ATOM_UDEF_STEREO_COUNT>
0

> <PUBCHEM_BOND_DEF_STEREO_COUNT>
0

> <PUBCHEM_BOND_UDEF_STEREO_COUNT>
0

> <PUBCHEM_ISOTOPIC_ATOM_COUNT>
0

> <PUBCHEM_COMPONENT_COUNT>
1

> <PUBCHEM_CACTVS_TAUTO_COUNT>
1

> <PUBCHEM_CONFORMER_ID>
0001F03000000001

> <PUBCHEM_MMFF94_ENERGY>
54.6047

> <PUBCHEM_FEATURE_SELFOVERLAP>
25.371

> <PUBCHEM_SHAPE_FINGERPRINT>
10165383 225 17471310456576226460
11132069 177 18334294253672991517
11315181 36 15285633297116967040
11640471 11 16009581339972476732
11759241 127 18340483465240620764
12236239 1 15769777982983027818
12403814 3 18272643558714396230
12623949 98 17488200337926454631
12633257 1 17131286661621693775
12969540 114 18120356689285314181
13214271 11 18413102887960603823
13224815 77 18334856125800761006
13583140 156 16558742446982263235
13681431 1 18044099174981443621
14142880 1 18042962086595403381
14181834 199 17752766015575648397
15848702 151 18131071553839405678
16752209 62 17458613506577577283
16945 1 18339634521883443913
17349148 13 16588021299780593042
17357779 13 18337095852281906061
17844478 74 18342175561679318370
1813 80 18187654634212928757
19049666 15 18197496221328489962
192875 21 14923939051170364934
19862831 5 16298104285270709538
19868273 325 18334290989745753367
200 152 15357689803847823634
20510252 161 18186796963503468096
20600515 1 17968099784323056216
21524375 3 17471005878917403517
22802520 49 18127408956459290732
23402539 116 18114733910857687722
23419403 2 17683768332507552029
23557571 272 18335136509876689114
23559900 14 18113890521389350434
3286 77 17846497058266400698
474 4 16270213077288746714
6049 1 18271806774968738764
6913067 236 18128796686299621194
7364860 26 17905049505825921545
77492 1 15626220234417500426
81228 2 18115030693008176977
84936 31 17768238377567062969

> <PUBCHEM_SHAPE_MULTIPOLES>
398.61
7.75
2.38
1.49
7.03
1.71
-0.17
-3.12
0.37
-0.95
-0.48
-0.14
0.04
1.24

> <PUBCHEM_SHAPE_SELFOVERLAP>
841.495

> <PUBCHEM_SHAPE_VOLUME>
225.2

> <PUBCHEM_COORDINATE_TYPE>
2
5
10

$$$$
1295
  -OEChem-12271619233D

 37 39  0     1  0  0  0  0  0999 V2000
   -1.6878   -2.1183   -0.0417 N   0  0  0  0  0  0  0  0  0  0  0  0
   -0.3322   -1.6393    0.2336 C   0  0  1  0  0  0  0  0  0  0  0  0
    0.5282   -2.7873   -0.2732 C   0  0  0  0  0  0  0  0  0  0  0  0
   -0.0481   -0.3227   -0.4681 C   0  0  0  0  0  0  0  0  0  0  0  0
   -0.2972   -4.0334    0.0246 C   0  0  0  0  0  0  0  0  0  0  0  0
   -1.6898   -3.5213    0.3669 C   0  0  0  0  0  0  0  0  0  0  0  0
    1.3656    0.2178   -0.2494 C   0  0  0  0  0  0  0  0  0  0  0  0
   -1.0996    0.7482   -0.1781 C   0  0  0  0  0  0  0  0  0  0  0  0
    1.9417    0.9785   -1.2414 C   0  0  0  0  0  0  0  0  0  0  0  0
   -2.1948    0.8400   -1.0073 C   0  0  0  0  0  0  0  0  0  0  0  0
    2.0090   -0.0761    0.9313 C   0  0  0  0  0  0  0  0  0  0  0  0
   -0.9132    1.5815    0.9019 C   0  0  0  0  0  0  0  0  0  0  0  0
    3.2311    1.4719   -1.0419 C   0  0  0  0  0  0  0  0  0  0  0  0
   -3.1544    1.8171   -0.7426 C   0  0  0  0  0  0  0  0  0  0  0  0
    3.2985    0.4173    1.1307 C   0  0  0  0  0  0  0  0  0  0  0  0
   -1.8730    2.5586    1.1665 C   0  0  0  0  0  0  0  0  0  0  0  0
    3.9094    1.1913    0.1440 C   0  0  0  0  0  0  0  0  0  0  0  0
   -2.9936    2.6762    0.3442 C   0  0  0  0  0  0  0  0  0  0  0  0
   -0.2532   -1.5452    1.3236 H   0  0  0  0  0  0  0  0  0  0  0  0
    1.5041   -2.8369    0.2193 H   0  0  0  0  0  0  0  0  0  0  0  0
    0.7029   -2.7198   -1.3544 H   0  0  0  0  0  0  0  0  0  0  0  0
   -0.1049   -0.5242   -1.5510 H   0  0  0  0  0  0  0  0  0  0  0  0
   -0.3154   -4.6948   -0.8484 H   0  0  0  0  0  0  0  0  0  0  0  0
    0.1250   -4.5943    0.8654 H   0  0  0  0  0  0  0  0  0  0  0  0
   -2.4740   -4.0886   -0.1436 H   0  0  0  0  0  0  0  0  0  0  0  0
   -1.8723   -3.5943    1.4451 H   0  0  0  0  0  0  0  0  0  0  0  0
   -1.8585   -2.0769   -1.0476 H   0  0  0  0  0  0  0  0  0  0  0  0
    1.4204    1.2030   -2.1668 H   0  0  0  0  0  0  0  0  0  0  0  0
   -2.3276    0.1823   -1.8606 H   0  0  0  0  0  0  0  0  0  0  0  0
    1.5669   -0.6535    1.7335 H   0  0  0  0  0  0  0  0  0  0  0  0
   -0.0711    1.5059    1.5792 H   0  0  0  0  0  0  0  0  0  0  0  0
    3.7065    2.0752   -1.8097 H   0  0  0  0  0  0  0  0  0  0  0  0
   -4.0262    1.9098   -1.3837 H   0  0  0  0  0  0  0  0  0  0  0  0
    3.8253    0.2036    2.0561 H   0  0  0  0  0  0  0  0  0  0  0  0
   -1.7513    3.2241    2.0163 H   0  0  0  0  0  0  0  0  0  0  0  0
    4.9127    1.5767    0.3000 H   0  0  0  0  0  0  0  0  0  0  0  0
   -3.7415    3.4362    0.5510 H   0  0  0  0  0  0  0  0  0  0  0  0
  1  2  1  0  0  0  0
  1  6  1  0  0  0  0
  1 27  1  0  0  0  0
  2  3  1  0  0  0  0
  2  4  1  0  0  0  0
  2 19  1  0  0  0  0
  3  5  1  0  0  0  0
  3 20  1  0  0  0  0
  3 21  1  0  0  0  0
  4  7  1  0  0  0  0
  4  8  1  0  0  0  0
  4 22  1  0  0  0  0
  5  6  1  0  0  0  0
  5 23  1  0  0  0  0
  5 24  1  0  0  0  0
  6 25  1  0  0  0  0
  6 26  1  0  0  0  0
  7  9  2  0  0  0  0
  7 11  1  0  0  0  0
  8 10  2  0  0  0  0
  8 12  1  0  0  0  0
  9 13  1  0  0  0  0
  9 28  1  0  0  0  0
 10 14  1  0  0  0  0
 10 29  1  0  0  0  0
 11 15  2  0  0  0  0
 11 30  1  0  0  0  0
 12 16  2  0  0  0  0
 12 31  1  0  0  0  0
 13 17  2  0  0  0  0
 13 32  1  0  0  0  0
 14 18  2  0  0  0  0
 14 33  1  0  0  0  0
 15 17  1  0  0  0  0
 15 34  1  0  0  0  0
 16 18  1  0  0  0  0
 16 35  1  0  0  0  0
 17 36  1  0  0  0  0
 18 37  1  0  0  0  0
M  END
> <PUBCHEM_COMPOUND_CID>
1295

> <PUBCHEM_CONFORMER_RMSD>
0.6

> <PUBCHEM_CONFORMER_DIVERSEORDER>
1
8
7
4
9
3
6
2
5

> <PUBCHEM_MMFF94_PARTIAL_CHARGES>
27
1 -0.9
10 -0.15
11 -0.15
12 -0.15
13 -0.15
14 -0.15
15 -0.15
16 -0.15
17 -0.15
18 -0.15
2 0.27
27 0.36
28 0.15
29 0.15
30 0.15
31 0.15
32 0.15
33 0.15
34 0.15
35 0.15
36 0.15
37 0.15
4 0.29
6 0.27
7 -0.14
8 -0.14
9 -0.15

> <PUBCHEM_EFFECTIVE_ROTOR_COUNT>
4

> <PUBCHEM_PHARMACOPHORE_FEATURES>
5
1 1 cation
1 1 donor
5 1 2 3 5 6 rings
6 7 9 11 13 15 17 rings
6 8 10 12 14 16 18 rings

> <PUBCHEM_HEAVY_ATOM_COUNT>
18

> <PUBCHEM_ATOM_DEF_STEREO_COUNT>
0

> <PUBCHEM_ATOM_UDEF_STEREO_COUNT>
1

> <PUBCHEM_BOND_DEF_STEREO_COUNT>
0

> <PUBCHEM_BOND_UDEF_STEREO_COUNT>
0

> <PUBCHEM_ISOTOPIC_ATOM_COUNT>
0

> <PUBCHEM_COMPONENT_COUNT>
1

> <PUBCHEM_CACTVS_TAUTO_COUNT>
1

> <PUBCHEM_CONFORMER_ID>
0000050F00000001

> <PUBCHEM_MMFF94_ENERGY>
51.7902

> <PUBCHEM_FEATURE_SELFOVERLAP>
25.373

> <PUBCHEM_SHAPE_FINGERPRINT>
10090160 65 18264476318225381053
11578080 2 12665493861720369928
12054548 360 17546165658881341644
121448 382 18272360971372947233
12173636 292 18410853261195155493
12553582 1 17689154930150645038
12643181 29 18339088074160504934
12788726 201 18046065127794879450
13140716 1 18265896843713121819
13538477 17 18262511615194479136
13583140 156 17022619779896359081
136203 1 18266462190126224027
13681431 1 17326061646009636138
14787075 74 18201991175429572621
14790565 3 18266754639583691529
14955137 171 16763407457179866931
15309172 13 18262520286396093092
15490181 8 18339077081930250502
15906896 17 18342167920848401982
16752209 62 18264761228595608182
16945 1 18265050421512167438
17980427 23 16188860928771957089
19765921 60 18058162834959987921
20097449 115 17546448237654260147
20510252 161 18341333412960579464
20600515 1 17337058317139650698
20645476 183 18407476665460310748
21524375 3 18129376003867219780
2255824 54 17835525925170190351
22907989 373 18194693785058457532
23419403 2 16907563507579832599
23557571 272 18055075621442646900
23558518 356 18341046324636160719
23559900 14 17760088411388792537
2748010 2 18264508203519098511
305870 269 18124031230552526488
3071541 236 18411130363863107288
3091708 16 9268966031032271051
350125 39 18338252461141981523
352729 6 18410287021227999039
4340502 62 18264772069884516289
4409770 3 18192985135277938039
458136 41 18194982746247657929
474 4 18122622760573632105
6442390 28 18126033553275294625
6443956 14 17257088169202795964
6992083 37 18113892767467251396
7164475 11 18119251907484245676
7364860 26 17765147272418597801
81228 2 18123485018060030674
84936 182 17984413036476216128

> <PUBCHEM_SHAPE_MULTIPOLES>
365.45
5.18
4.45
1.13
2.18
5.98
0
-5.16
0.03
-2.51
-0.47
0.23
-0.56
-0.38

> <PUBCHEM_SHAPE_SELFOVERLAP>
790.953

> <PUBCHEM_SHAPE_VOLUME>
200.4

> <PUBCHEM_COORDINATE_TYPE>
2
5
10

$$$$
1295
  -OEChem-12271619463D

 37 39  0     1  0  0  0  0  0999 V2000
   -1.6878   -2.1183   -0.0417 N   0  0  0  0  0  0  0  0  0  0  0  0
   -0.3322   -1.6393    0.2336 C   0  0  1  0  0  0  0  0  0  0  0  0
    0.5282   -2.7873   -0.2732 C   0  0  0  0  0  0  0  0  0  0  0  0
   -0.0481   -0.3227   -0.4681 C   0  0  0  0  0  0  0  0  0  0  0  0
   -0.2972   -4.0334    0.0246 C   0  0  0  0  0  0  0  0  0  0  0  0
   -1.6898   -3.5213    0.3669 C   0  0  0  0  0  0  0  0  0  0  0  0
    1.3656    0.2178   -0.2494 C   0  0  0  0  0  0  0  0  0  0  0  0
   -1.0996    0.7482   -0.1781 C   0  0  0  0  0  0  0  0  0  0  0  0
    1.9417    0.9785   -1.2414 C   0  0  0  0  0  0  0  0  0  0  0  0
   -2.1948    0.8400   -1.0073 C   0  0  0  0  0  0  0  0  0  0  0  0
    2.0090   -0.0761    0.9313 C   0  0  0  0  0  0  0  0  0  0  0  0
   -0.9132    1.5815    0.9019 C   0  0  0  0  0  0  0  0  0  0  0  0
    3.2311    1.4719   -1.0419 C   0  0  0  0  0  0  0  0  0  0  0  0
   -3.1544    1.8171   -0.7426 C   0  0  0  0  0  0  0  0  0  0  0  0
    3.2985    0.4173    1.1307 C   0  0  0  0  0  0  0  0  0  0  0  0
   -1.8730    2.5586    1.1665 C   0  0  0  0  0  0  0  0  0  0  0  0
    3.9094    1.1913    0.1440 C   0  0  0  0  0  0  0  0  0  0  0  0
   -2.9936    2.6762    0.3442 C   0  0  0  0  0  0  0  0  0  0  0  0
   -0.2532   -1.5452    1.3236 H   0  0  0  0  0  0  0  0  0  0  0  0
    1.5041   -2.8369    0.2193 H   0  0  0  0  0  0  0  0  0  0  0  0
    0.7029   -2.7198   -1.3544 H   0  0  0  0  0  0  0  0  0  0  0  0
   -0.1049   -0.5242   -1.5510 H   0  0  0  0  0  0  0  0  0  0  0  0
   -0.3154   -4.6948   -0.8484 H   0  0  0  0  0  0  0  0  0  0  0  0
    0.1250   -4.5943    0.8654 H   0  0  0  0  0  0  0  0  0  0  0  0
   -2.4740   -4.0886   -0.1436 H   0  0  0  0  0  0  0  0  0  0  0  0
   -1.8723   -3.5943    1.4451 H   0  0  0  0  0  0  0  0  0  0  0  0
   -1.8585   -2.0769   -1.0476 H   0  0  0  0  0  0  0  0  0  0  0  0
    1.4204    1.2030   -2.1668 H   0  0  0  0  0  0  0  0  0  0  0  0
   -2.3276    0.1823   -1.8606 H   0  0  0  0  0  0  0  0  0  0  0  0
    1.5669   -0.6535    1.7335 H   0  0  0  0  0  0  0  0  0  0  0  0
   -0.0711    1.5059    1.5792 H   0  0  0  0  0  0  0  0  0  0  0  0
    3.7065    2.0752   -1.8097 H   0  0  0  0  0  0  0  0  0  0  0  0
   -4.0262    1.9098   -1.3837 H   0  0  0  0  0  0  0  0  0  0  0  0
    3.8253    0.2036    2.0561 H   0  0  0  0  0  0  0  0  0  0  0  0
   -1.7513    3.2241    2.0163 H   0  0  0  0  0  0  0  0  0  0  0  0
    4.9127    1.5767    0.3000 H   0  0  0  0  0  0  0  0  0  0  0  0
   -3.7415    3.4362    0.5510 H   0  0  0  0  0  0  0  0  0  0  0  0
  1  2  1  0  0  0  0
  1  6  1  0  0  0  0
  1 27  1  0  0  0  0
  2  3  1  0  0  0  0
  2  4  1  0  0  0  0
  2 19  1  0  0  0  0
  3  5  1  0  0  0  0
  3 20  1  0  0  0  0
  3 21  1  0  0  0  0
  4  7  1  0  0  0  0
  4  8  1  0  0  0  0
  4 22  1  0  0  0  0
  5  6  1  0  0  0  0
  5 23  1  0  0  0  0
  5 24  1  0  0  0  0
  6 25  1  0  0  0  0
  6 26  1  0  0  0  0
  7  9  2  0  0  0  0
  7 11  1  0  0  0  0
  8 10  2  0  0  0  0
  8 12  1  0  0  0  0
  9 13  1  0  0  0  0
  9 28  1  0  0  0  0
 10 14  1  0  0  0  0
 10 29  1  0  0  0  0
 11 15  2  0  0  0  0
 11 30  1  0  0  0  0
 12 16  2  0  0  0  0
 12 31  1  0  0  0  0
 13 17  2  0  0  0  0
 13 32  1  0  0  0  0
 14 18  2  0  0  0  0
 14 33  1  0  0  0  0
 15 17  1  0  0  0  0
 15 34  1  0  0  0  0
 16 18  1  0  0  0  0
 16 35  1  0  0  0  0
 17 36  1  0  0  0  0
 18 37  1  0  0  0  0
M  END
> <PUBCHEM_COMPOUND_CID>
1295

> <PUBCHEM_CONFORMER_RMSD>
0.6

> <PUBCHEM_CONFORMER_DIVERSEORDER>
1
8
7
4
9
3
6
2
5

> <PUBCHEM_MMFF94_PARTIAL_CHARGES>
27
1 -0.9
10 -0.15
11 -0.15
12 -0.15
13 -0.15
14 -0.15
15 -0.15
16 -0.15
17 -0.15
18 -0.15
2 0.27
27 0.36
28 0.15
29 0.15
30 0.15
31 0.15
32 0.15
33 0.15
34 0.15
35 0.15
36 0.15
37 0.15
4 0.29
6 0.27
7 -0.14
8 -0.14
9 -0.15

> <PUBCHEM_EFFECTIVE_ROTOR_COUNT>
4

> <PUBCHEM_PHARMACOPHORE_FEATURES>
5
1 1 cation
1 1 donor
5 1 2 3 5 6 rings
6 7 9 11 13 15 17 rings
6 8 10 12 14 16 18 rings

> <PUBCHEM_HEAVY_ATOM_COUNT>
18

> <PUBCHEM_ATOM_DEF_STEREO_COUNT>
0

> <PUBCHEM_ATOM_UDEF_STEREO_COUNT>
1

> <PUBCHEM_BOND_DEF_STEREO_COUNT>
0

> <PUBCHEM_BOND_UDEF_STEREO_COUNT>
0

> <PUBCHEM_ISOTOPIC_ATOM_COUNT>
0

> <PUBCHEM_COMPONENT_COUNT>
1

> <PUBCHEM_CACTVS_TAUTO_COUNT>
1

> <PUBCHEM_CONFORMER_ID>
0000050F00000001

> <PUBCHEM_MMFF94_ENERGY>
51.7902

> <PUBCHEM_FEATURE_SELFOVERLAP>
25.373

> <PUBCHEM_SHAPE_FINGERPRINT>
10090160 65 18264476318225381053
11578080 2 12665493861720369928
12054548 360 17546165658881341644
121448 382 18272360971372947233
12173636 292 18410853261195155493
12553582 1 17689154930150645038
12643181 29 18339088074160504934
12788726 201 18046065127794879450
13140716 1 18265896843713121819
13538477 17 18262511615194479136
13583140 156 17022619779896359081
136203 1 18266462190126224027
13681431 1 17326061646009636138
14787075 74 18201991175429572621
14790565 3 18266754639583691529
14955137 171 16763407457179866931
15309172 13 18262520286396093092
15490181 8 18339077081930250502
15906896 17 18342167920848401982
16752209 62 18264761228595608182
16945 1 18265050421512167438
17980427 23 16188860928771957089
19765921 60 18058162834959987921
20097449 115 17546448237654260147
20510252 161 18341333412960579464
20600515 1 17337058317139650698
20645476 183 18407476665460310748
21524375 3 18129376003867219780
2255824 54 17835525925170190351
22907989 373 18194693785058457532
23419403 2 16907563507579832599
23557571 272 18055075621442646900
23558518 356 18341046324636160719
23559900 14 17760088411388792537
2748010 2 18264508203519098511
305870 269 18124031230552526488
3071541 236 18411130363863107288
3091708 16 9268966031032271051
350125 39 18338252461141981523
352729 6 18410287021227999039
4340502 62 18264772069884516289
4409770 3 18192985135277938039
458136 41 18194982746247657929
474 4 18122622760573632105
6442390 28 18126033553275294625
6443956 14 17257088169202795964
6992083 37 18113892767467251396
7164475 11 18119251907484245676
7364860 26 17765147272418597801
81228 2 18123485018060030674
84936 182 17984413036476216128

> <PUBCHEM_SHAPE_MULTIPOLES>
365.45
5.18
4.45
1.13
2.18
5.98
0
-5.16
0.03
-2.51
-0.47
0.23
-0.56
-0.38

> <PUBCHEM_SHAPE_SELFOVERLAP>
790.953

> <PUBCHEM_SHAPE_VOLUME>
200.4

> <PUBCHEM_COORDINATE_TYPE>
2
5
10

$$$$
135918
  -OEChem-12271620053D

 32 33  0     0  0  0  0  0  0999 V2000
    0.9247   -2.1765    1.3903 O   0  0  0  0  0  0  0  0  0  0  0  0
   -2.7009    1.5836   -1.2029 N   0  0  0  0  0  0  0  0  0  0  0  0
   -0.6889   -1.4673   -0.2844 C   0  0  0  0  0  0  0  0  0  0  0  0
   -1.5842   -0.2275   -0.1444 C   0  0  0  0  0  0  0  0  0  0  0  0
   -0.3042   -1.8423   -1.7328 C   0  0  0  0  0  0  0  0  0  0  0  0
   -1.4886   -2.6733    0.2764 C   0  0  0  0  0  0  0  0  0  0  0  0
    0.6305   -1.3558    0.5190 C   0  0  0  0  0  0  0  0  0  0  0  0
    1.6182   -0.2722    0.2595 C   0  0  0  0  0  0  0  0  0  0  0  0
   -2.0322    0.1370    1.0937 C   0  0  0  0  0  0  0  0  0  0  0  0
   -1.9160    0.4842   -1.2564 C   0  0  0  0  0  0  0  0  0  0  0  0
    1.5032    0.9102    0.9572 C   0  0  0  0  0  0  0  0  0  0  0  0
    2.6127   -0.4905   -0.6689 C   0  0  0  0  0  0  0  0  0  0  0  0
   -2.8423    1.2630    1.1893 C   0  0  0  0  0  0  0  0  0  0  0  0
   -3.1447    1.9454    0.0219 C   0  0  0  0  0  0  0  0  0  0  0  0
    2.4286    1.9252    0.7144 C   0  0  0  0  0  0  0  0  0  0  0  0
    3.5381    0.5246   -0.9116 C   0  0  0  0  0  0  0  0  0  0  0  0
    3.4461    1.7324   -0.2200 C   0  0  0  0  0  0  0  0  0  0  0  0
    0.2426   -1.0399   -2.2403 H   0  0  0  0  0  0  0  0  0  0  0  0
   -1.1878   -2.0800   -2.3373 H   0  0  0  0  0  0  0  0  0  0  0  0
    0.3472   -2.7250   -1.7503 H   0  0  0  0  0  0  0  0  0  0  0  0
   -2.4546   -2.7807   -0.2322 H   0  0  0  0  0  0  0  0  0  0  0  0
   -1.6880   -2.5896    1.3508 H   0  0  0  0  0  0  0  0  0  0  0  0
   -0.9386   -3.6124    0.1360 H   0  0  0  0  0  0  0  0  0  0  0  0
   -1.7703   -0.4039    1.9966 H   0  0  0  0  0  0  0  0  0  0  0  0
   -1.5929    0.2447   -2.2607 H   0  0  0  0  0  0  0  0  0  0  0  0
    0.7234    1.0656    1.6954 H   0  0  0  0  0  0  0  0  0  0  0  0
    2.6941   -1.4303   -1.2064 H   0  0  0  0  0  0  0  0  0  0  0  0
   -3.2217    1.5984    2.1477 H   0  0  0  0  0  0  0  0  0  0  0  0
   -3.7716    2.8308    0.0427 H   0  0  0  0  0  0  0  0  0  0  0  0
    2.3587    2.8645    1.2550 H   0  0  0  0  0  0  0  0  0  0  0  0
    4.3314    0.3739   -1.6381 H   0  0  0  0  0  0  0  0  0  0  0  0
    4.1673    2.5223   -0.4083 H   0  0  0  0  0  0  0  0  0  0  0  0
  1  7  2  0  0  0  0
  2 10  1  0  0  0  0
  2 14  2  0  0  0  0
  3  4  1  0  0  0  0
  3  5  1  0  0  0  0
  3  6  1  0  0  0  0
  3  7  1  0  0  0  0
  4  9  1  0  0  0  0
  4 10  2  0  0  0  0
  5 18  1  0  0  0  0
  5 19  1  0  0  0  0
  5 20  1  0  0  0  0
  6 21  1  0  0  0  0
  6 22  1  0  0  0  0
  6 23  1  0  0  0  0
  7  8  1  0  0  0  0
  8 11  2  0  0  0  0
  8 12  1  0  0  0  0
  9 13  2  0  0  0  0
  9 24  1  0  0  0  0
 10 25  1  0  0  0  0
 11 15  1  0  0  0  0
 11 26  1  0  0  0  0
 12 16  2  0  0  0  0
 12 27  1  0  0  0  0
 13 14  1  0  0  0  0
 13 28  1  0  0  0  0
 14 29  1  0  0  0  0
 15 17  2  0  0  0  0
 15 30  1  0  0  0  0
 16 17  1  0  0  0  0
 16 31  1  0  0  0  0
 17 32  1  0  0  0  0
M  END
> <PUBCHEM_COMPOUND_CID>
135918

> <PUBCHEM_CONFORMER_RMSD>
0.6

> <PUBCHEM_CONFORMER_DIVERSEORDER>
1
29
9
13
23
17
28
10
30
19
24
8
6
18
14
22
20
5
3
15
21
27
4
12
7
25
16
11
26
2

> <PUBCHEM_MMFF94_PARTIAL_CHARGES>
24
1 -0.57
10 0.16
11 -0.15
12 -0.15
13 -0.15
14 0.16
15 -0.15
16 -0.15
17 -0.15
2 -0.62
24 0.15
25 0.15
26 0.15
27 0.15
28 0.15
29 0.15
3 0.2
30 0.15
31 0.15
32 0.15
4 -0.14
7 0.42
8 0.09
9 -0.15

> <PUBCHEM_EFFECTIVE_ROTOR_COUNT>
3

> <PUBCHEM_PHARMACOPHORE_FEATURES>
5
1 1 acceptor
1 2 acceptor
3 3 5 6 hydrophobe
6 2 4 9 10 13 14 rings
6 8 11 12 15 16 17 rings

> <PUBCHEM_HEAVY_ATOM_COUNT>
17

> <PUBCHEM_ATOM_DEF_STEREO_COUNT>
0

> <PUBCHEM_ATOM_UDEF_STEREO_COUNT>
0

> <PUBCHEM_BOND_DEF_STEREO_COUNT>
0

> <PUBCHEM_BOND_UDEF_STEREO_COUNT>
0

> <PUBCHEM_ISOTOPIC_ATOM_COUNT>
0

> <PUBCHEM_COMPONENT_COUNT>
1

> <PUBCHEM_CACTVS_TAUTO_COUNT>
1

> <PUBCHEM_CONFORMER_ID>
000212EE00000001

> <PUBCHEM_MMFF94_ENERGY>
64.679

> <PUBCHEM_FEATURE_SELFOVERLAP>
25.372

> <PUBCHEM_SHAPE_FINGERPRINT>
10165383 225 18189920654547624268
10498660 4 18261385663537377181
12173636 292 17988651830005324897
12202030 40 12102685694197373949
12363563 72 10592038059528307644
12382932 28 12396297041204849221
12808571 1 17775012232656181995
128993 33 18408890645856053980
13134695 92 17540789725610590314
13294875 104 18267284492202015104
13693222 15 11602814739893597444
13693222 7 18411409644206494832
13764800 53 18188490288846202907
14142880 1 18263913513799726861
14386348 128 18336273400446924476
15775835 57 18409450267109308356
16945 1 18338798892893613162
17134986 127 18410288069189385420
17357990 137 18057876944477003755
18186145 218 18341342132245467108
18219364 16 18410019809958997913
18981168 100 18130217259142850362
20510252 161 17975129056727882186
20671657 53 12391508659554986936
21296965 12 18410016554415803527
21524375 3 18411979135389891599
22094290 62 18338513041455796370
22802520 49 18058457663095204960
23175994 123 17394164326671680851
23402539 116 17762325217197353662
23419403 2 17331744106685875682
23557571 272 17907299106547916110
23559900 14 18272377465154808524
238 59 18049413990830961653
25 1 18271536281764610884
2637199 183 18200889369724641105
2748010 2 18058451070235944648
305870 269 18114170943871980138
3060560 45 17986667069777883741
350125 39 18334858320249870962
430814 3 18408043991721448242
5262128 65 15266764598735514185
549884 4 17989198226991458704
6442390 28 18189635954266830411
74978 22 18342172276224541698
81228 2 17902234738478201411

> <PUBCHEM_SHAPE_MULTIPOLES>
339
5.44
2.65
1.39
2.16
0.74
0.17
-3.89
0.63
-0.86
-0.2
-0.35
0.19
0.13

> <PUBCHEM_SHAPE_SELFOVERLAP>
729.581

> <PUBCHEM_SHAPE_VOLUME>
186.8

> <PUBCHEM_COORDINATE_TYPE>
2
5
10

$$$$
14373
  -OEChem-12271619343D

 41 42  0     1  0  0  0  0  0999 V2000
   -0.3752    0.3573   -2.0719 O   0  0  0  0  0  0  0  0  0  0  0  0
   -2.2154   -0.6332   -0.0993 N   0  0  0  0  0  0  0  0  0  0  0  0
   -1.2549    0.4252    0.1750 C   0  0  2  0  0  0  0  0  0  0  0  0
   -3.3456   -0.6158    0.8289 C   0  0  0  0  0  0  0  0  0  0  0  0
   -1.6312   -1.9670    0.0387 C   0  0  0  0  0  0  0  0  0  0  0  0
   -3.9815   -1.9817    0.6164 C   0  0  0  0  0  0  0  0  0  0  0  0
   -2.8540   -2.8704    0.1004 C   0  0  0  0  0  0  0  0  0  0  0  0
   -1.9480    1.7920    0.0595 C   0  0  0  0  0  0  0  0  0  0  0  0
   -0.1494    0.2745   -0.8656 C   0  0  0  0  0  0  0  0  0  0  0  0
   -0.9683    2.9540    0.2556 C   0  0  0  0  0  0  0  0  0  0  0  0
    1.2458    0.0174   -0.4161 C   0  0  0  0  0  0  0  0  0  0  0  0
   -1.6660    4.2979    0.1160 C   0  0  0  0  0  0  0  0  0  0  0  0
    1.6524    0.5142    0.8034 C   0  0  0  0  0  0  0  0  0  0  0  0
    2.0833   -0.7094   -1.2348 C   0  0  0  0  0  0  0  0  0  0  0  0
    2.9600    0.2728    1.2246 C   0  0  0  0  0  0  0  0  0  0  0  0
    3.3909   -0.9508   -0.8136 C   0  0  0  0  0  0  0  0  0  0  0  0
    3.8294   -0.4599    0.4163 C   0  0  0  0  0  0  0  0  0  0  0  0
    5.2279   -0.7172    0.8665 C   0  0  0  0  0  0  0  0  0  0  0  0
   -0.8738    0.3072    1.1935 H   0  0  0  0  0  0  0  0  0  0  0  0
   -4.0737    0.1705    0.6074 H   0  0  0  0  0  0  0  0  0  0  0  0
   -3.0206   -0.5176    1.8727 H   0  0  0  0  0  0  0  0  0  0  0  0
   -1.0536   -2.0679    0.9669 H   0  0  0  0  0  0  0  0  0  0  0  0
   -0.9922   -2.2481   -0.8043 H   0  0  0  0  0  0  0  0  0  0  0  0
   -4.7818   -1.9279   -0.1311 H   0  0  0  0  0  0  0  0  0  0  0  0
   -4.4135   -2.3722    1.5433 H   0  0  0  0  0  0  0  0  0  0  0  0
   -2.6845   -3.7310    0.7555 H   0  0  0  0  0  0  0  0  0  0  0  0
   -3.1089   -3.2510   -0.8957 H   0  0  0  0  0  0  0  0  0  0  0  0
   -2.7362    1.8970    0.8141 H   0  0  0  0  0  0  0  0  0  0  0  0
   -2.4258    1.8935   -0.9242 H   0  0  0  0  0  0  0  0  0  0  0  0
   -0.1583    2.9096   -0.4800 H   0  0  0  0  0  0  0  0  0  0  0  0
   -0.5157    2.8939    1.2514 H   0  0  0  0  0  0  0  0  0  0  0  0
   -2.4630    4.4058    0.8587 H   0  0  0  0  0  0  0  0  0  0  0  0
   -0.9512    5.1133    0.2649 H   0  0  0  0  0  0  0  0  0  0  0  0
   -2.1064    4.4098   -0.8799 H   0  0  0  0  0  0  0  0  0  0  0  0
    1.0211    1.1120    1.4488 H   0  0  0  0  0  0  0  0  0  0  0  0
    1.7541   -1.1027   -2.1919 H   0  0  0  0  0  0  0  0  0  0  0  0
    3.2929    0.6676    2.1810 H   0  0  0  0  0  0  0  0  0  0  0  0
    4.0589   -1.5224   -1.4526 H   0  0  0  0  0  0  0  0  0  0  0  0
    5.6014   -1.6681    0.4718 H   0  0  0  0  0  0  0  0  0  0  0  0
    5.8865    0.0874    0.5247 H   0  0  0  0  0  0  0  0  0  0  0  0
    5.2862   -0.7788    1.9585 H   0  0  0  0  0  0  0  0  0  0  0  0
  1  9  2  0  0  0  0
  2  3  1  0  0  0  0
  2  4  1  0  0  0  0
  2  5  1  0  0  0  0
  3  8  1  0  0  0  0
  3  9  1  0  0  0  0
  3 19  1  0  0  0  0
  4  6  1  0  0  0  0
  4 20  1  0  0  0  0
  4 21  1  0  0  0  0
  5  7  1  0  0  0  0
  5 22  1  0  0  0  0
  5 23  1  0  0  0  0
  6  7  1  0  0  0  0
  6 24  1  0  0  0  0
  6 25  1  0  0  0  0
  7 26  1  0  0  0  0
  7 27  1  0  0  0  0
  8 10  1  0  0  0  0
  8 28  1  0  0  0  0
  8 29  1  0  0  0  0
  9 11  1  0  0  0  0
 10 12  1  0  0  0  0
 10 30  1  0  0  0  0
 10 31  1  0  0  0  0
 11 13  2  0  0  0  0
 11 14  1  0  0  0  0
 12 32  1  0  0  0  0
 12 33  1  0  0  0  0
 12 34  1  0  0  0  0
 13 15  1  0  0  0  0
 13 35  1  0  0  0  0
 14 16  2  0  0  0  0
 14 36  1  0  0  0  0
 15 17  2  0  0  0  0
 15 37  1  0  0  0  0
 16 17  1  0  0  0  0
 16 38  1  0  0  0  0
 17 18  1  0  0  0  0
 18 39  1  0  0  0  0
 18 40  1  0  0  0  0
 18 41  1  0  0  0  0
M  END
> <PUBCHEM_COMPOUND_CID>
14373

> <PUBCHEM_CONFORMER_RMSD>
0.8

> <PUBCHEM_CONFORMER_DIVERSEORDER>
1
12
20
16
24
14
6
13
21
10
22
4
15
9
17
5
18
23
11
19
8
3
7
2

> <PUBCHEM_MMFF94_PARTIAL_CHARGES>
17
1 -0.57
11 0.09
13 -0.15
14 -0.15
15 -0.15
16 -0.15
17 -0.14
18 0.14
2 -0.81
3 0.33
35 0.15
36 0.15
37 0.15
38 0.15
4 0.27
5 0.27
9 0.42

> <PUBCHEM_EFFECTIVE_ROTOR_COUNT>
6

> <PUBCHEM_PHARMACOPHORE_FEATURES>
5
1 1 acceptor
1 12 hydrophobe
1 2 cation
5 2 4 5 6 7 rings
6 11 13 14 15 16 17 rings

> <PUBCHEM_HEAVY_ATOM_COUNT>
18

> <PUBCHEM_ATOM_DEF_STEREO_COUNT>
0

> <PUBCHEM_ATOM_UDEF_STEREO_COUNT>
1

> <PUBCHEM_BOND_DEF_STEREO_COUNT>
0

> <PUBCHEM_BOND_UDEF_STEREO_COUNT>
0

> <PUBCHEM_ISOTOPIC_ATOM_COUNT>
0

> <PUBCHEM_COMPONENT_COUNT>
1

> <PUBCHEM_CACTVS_TAUTO_COUNT>
2

> <PUBCHEM_CONFORMER_ID>
0000382500000001

> <PUBCHEM_MMFF94_ENERGY>
37.9206

> <PUBCHEM_FEATURE_SELFOVERLAP>
25.371

> <PUBCHEM_SHAPE_FINGERPRINT>
10366900 7 18131060528890283502
11046707 91 18040430005911170186
11357001 24 18410290281234510961
11578080 2 17605818425665519965
11646440 116 18270975570554989193
12173636 292 18122060905694349213
12251169 10 17346041180977895239
12363563 72 18336833116374504483
12500047 106 18122627150288379092
12532896 13 17908701731018473773
12553582 1 18266759028491460087
12633257 1 17988936599127149691
12788726 201 18261692427059402065
12824470 246 17822280280378613010
13140716 1 18337677511371370449
13294875 104 16973913325988254680
13583140 156 17987215782489816290
136203 1 18338238167796782249
13675066 3 17917701367616144978
14081887 123 18412259510770552658
14178342 30 18263079921093476842
14289901 80 18335143072987592344
14787075 74 17753886418314878456
15653759 3 18273216387271920394
15885798 251 18338524131140638427
16752209 62 18041267812523383375
16945 1 18338806623612953157
17780758 139 18190722169224302506
17844478 74 18131068238414628104
17980427 26 17043155079374547237
18186145 218 12107774225088340775
18219364 16 16917057837745928040
19049666 15 17985836921371907878
19591789 44 16681475724390568052
200 152 15791444933555899502
20361792 2 17240761843154162543
20510252 161 18342178812895903513
20600515 1 18200612370652492249
20671657 53 17095521858962092095
21421861 104 17114391888399370115
21524375 3 17479730520763734461
21650355 55 18410856581494453801
22112679 90 17676786278957049100
22182313 1 17417254217759032116
23366157 5 17614006609290444589
23402539 116 18272362067190643829
23419403 2 17612274813762291501
23493267 7 18126560129367009280
23503958 8 18262231119596997458
23557571 272 18411135831609754096
23559900 14 18270130011083370094
23845131 108 17620208533603347393
3091708 16 8989727448472854873
5902787 121 18191871338731223715
59755656 520 17975124349312214461
6049 1 17845666845709904164
6442390 28 17836662824800268177
7364860 26 17691135146444430261
77188 2 18265894846843674153
81228 2 18340782450709527553
90316 7 18411709794012212441

> <PUBCHEM_SHAPE_MULTIPOLES>
359.58
7.57
3.47
1.2
6.64
3.93
-0.34
-4.72
2.54
-5
0.31
0.6
-0.07
0.48

> <PUBCHEM_SHAPE_SELFOVERLAP>
743.174

> <PUBCHEM_SHAPE_VOLUME>
209

> <PUBCHEM_COORDINATE_TYPE>
2
5
10

$$$$
160506
  -OEChem-12271619493D

 40 42  0     1  0  0  0  0  0999 V2000
   -2.4638   -0.1288    0.1525 N   0  0  0  0  0  0  0  0  0  0  0  0
   -1.2818    0.6955   -0.1292 C   0  0  1  0  0  0  0  0  0  0  0  0
   -1.4796    2.1264    0.3901 C   0  0  0  0  0  0  0  0  0  0  0  0
   -0.0585    0.0537    0.5226 C   0  0  0  0  0  0  0  0  0  0  0  0
   -2.7442    2.7549   -0.1888 C   0  0  0  0  0  0  0  0  0  0  0  0
   -3.9465    1.8447    0.0373 C   0  0  0  0  0  0  0  0  0  0  0  0
   -3.6694    0.4285   -0.4612 C   0  0  0  0  0  0  0  0  0  0  0  0
    1.2486    0.7990    0.2669 C   0  0  0  0  0  0  0  0  0  0  0  0
    0.0721   -1.4314    0.1984 C   0  0  0  0  0  0  0  0  0  0  0  0
    2.2414    0.7420    1.2207 C   0  0  0  0  0  0  0  0  0  0  0  0
   -0.5326   -2.3478    1.0315 C   0  0  0  0  0  0  0  0  0  0  0  0
    1.3912    1.5029   -0.9090 C   0  0  0  0  0  0  0  0  0  0  0  0
    0.7900   -1.8065   -0.9167 C   0  0  0  0  0  0  0  0  0  0  0  0
    3.4361    1.4230    0.9870 C   0  0  0  0  0  0  0  0  0  0  0  0
   -0.4135   -3.7056    0.7352 C   0  0  0  0  0  0  0  0  0  0  0  0
    2.5860    2.1838   -1.1426 C   0  0  0  0  0  0  0  0  0  0  0  0
    0.9090   -3.1643   -1.2129 C   0  0  0  0  0  0  0  0  0  0  0  0
    3.6084    2.1438   -0.1946 C   0  0  0  0  0  0  0  0  0  0  0  0
    0.3072   -4.1138   -0.3870 C   0  0  0  0  0  0  0  0  0  0  0  0
   -1.1744    0.7070   -1.2205 H   0  0  0  0  0  0  0  0  0  0  0  0
   -0.6398    2.7822    0.1442 H   0  0  0  0  0  0  0  0  0  0  0  0
   -1.5587    2.1207    1.4858 H   0  0  0  0  0  0  0  0  0  0  0  0
   -0.2134    0.1220    1.6127 H   0  0  0  0  0  0  0  0  0  0  0  0
   -2.6093    2.9241   -1.2643 H   0  0  0  0  0  0  0  0  0  0  0  0
   -2.9229    3.7329    0.2715 H   0  0  0  0  0  0  0  0  0  0  0  0
   -4.1883    1.8182    1.1074 H   0  0  0  0  0  0  0  0  0  0  0  0
   -4.8225    2.2545   -0.4779 H   0  0  0  0  0  0  0  0  0  0  0  0
   -2.6033   -0.1809    1.1621 H   0  0  0  0  0  0  0  0  0  0  0  0
   -4.5209   -0.2168   -0.2193 H   0  0  0  0  0  0  0  0  0  0  0  0
   -3.5705    0.4201   -1.5534 H   0  0  0  0  0  0  0  0  0  0  0  0
    2.1167    0.1820    2.1424 H   0  0  0  0  0  0  0  0  0  0  0  0
   -1.0887   -2.0440    1.9130 H   0  0  0  0  0  0  0  0  0  0  0  0
    0.6386    1.5429   -1.6867 H   0  0  0  0  0  0  0  0  0  0  0  0
    1.2504   -1.1002   -1.5970 H   0  0  0  0  0  0  0  0  0  0  0  0
    4.2326    1.3911    1.7247 H   0  0  0  0  0  0  0  0  0  0  0  0
   -0.8805   -4.4451    1.3791 H   0  0  0  0  0  0  0  0  0  0  0  0
    2.7234    2.7403   -2.0653 H   0  0  0  0  0  0  0  0  0  0  0  0
    1.4651   -3.4826   -2.0899 H   0  0  0  0  0  0  0  0  0  0  0  0
    4.5393    2.6726   -0.3773 H   0  0  0  0  0  0  0  0  0  0  0  0
    0.3990   -5.1710   -0.6185 H   0  0  0  0  0  0  0  0  0  0  0  0
  1  2  1  0  0  0  0
  1  7  1  0  0  0  0
  1 28  1  0  0  0  0
  2  3  1  0  0  0  0
  2  4  1  0  0  0  0
  2 20  1  0  0  0  0
  3  5  1  0  0  0  0
  3 21  1  0  0  0  0
  3 22  1  0  0  0  0
  4  8  1  0  0  0  0
  4  9  1  0  0  0  0
  4 23  1  0  0  0  0
  5  6  1  0  0  0  0
  5 24  1  0  0  0  0
  5 25  1  0  0  0  0
  6  7  1  0  0  0  0
  6 26  1  0  0  0  0
  6 27  1  0  0  0  0
  7 29  1  0  0  0  0
  7 30  1  0  0  0  0
  8 10  2  0  0  0  0
  8 12  1  0  0  0  0
  9 11  2  0  0  0  0
  9 13  1  0  0  0  0
 10 14  1  0  0  0  0
 10 31  1  0  0  0  0
 11 15  1  0  0  0  0
 11 32  1  0  0  0  0
 12 16  2  0  0  0  0
 12 33  1  0  0  0  0
 13 17  2  0  0  0  0
 13 34  1  0  0  0  0
 14 18  2  0  0  0  0
 14 35  1  0  0  0  0
 15 19  2  0  0  0  0
 15 36  1  0  0  0  0
 16 18  1  0  0  0  0
 16 37  1  0  0  0  0
 17 19  1  0  0  0  0
 17 38  1  0  0  0  0
 18 39  1  0  0  0  0
 19 40  1  0  0  0  0
M  END
> <PUBCHEM_COMPOUND_CID>
160506

> <PUBCHEM_CONFORMER_RMSD>
0.6

> <PUBCHEM_CONFORMER_DIVERSEORDER>
1
7
6
9
5
2
8
4
3

> <PUBCHEM_MMFF94_PARTIAL_CHARGES>
27
1 -0.9
10 -0.15
11 -0.15
12 -0.15
13 -0.15
14 -0.15
15 -0.15
16 -0.15
17 -0.15
18 -0.15
19 -0.15
2 0.27
28 0.36
31 0.15
32 0.15
33 0.15
34 0.15
35 0.15
36 0.15
37 0.15
38 0.15
39 0.15
4 0.29
40 0.15
7 0.27
8 -0.14
9 -0.14

> <PUBCHEM_EFFECTIVE_ROTOR_COUNT>
4.2

> <PUBCHEM_PHARMACOPHORE_FEATURES>
5
1 1 cation
1 1 donor
6 1 2 3 5 6 7 rings
6 8 10 12 14 16 18 rings
6 9 11 13 15 17 19 rings

> <PUBCHEM_HEAVY_ATOM_COUNT>
19

> <PUBCHEM_ATOM_DEF_STEREO_COUNT>
0

> <PUBCHEM_ATOM_UDEF_STEREO_COUNT>
1

> <PUBCHEM_BOND_DEF_STEREO_COUNT>
0

> <PUBCHEM_BOND_UDEF_STEREO_COUNT>
0

> <PUBCHEM_ISOTOPIC_ATOM_COUNT>
0

> <PUBCHEM_COMPONENT_COUNT>
1

> <PUBCHEM_CACTVS_TAUTO_COUNT>
1

> <PUBCHEM_CONFORMER_ID>
000272FA00000001

> <PUBCHEM_MMFF94_ENERGY>
48.579

> <PUBCHEM_FEATURE_SELFOVERLAP>
25.373

> <PUBCHEM_SHAPE_FINGERPRINT>
10090160 65 18335969931522738605
11578080 2 11981800854153506477
11833330 49 17617930774252190313
12054548 360 17256528513478572428
12553582 1 17112977925098716370
12643181 29 18411149035467805364
12788726 201 17756988174791839786
13140716 1 18338798918473363817
13538477 17 17972590258873612360
13583140 156 17343213332584124264
13681431 1 17838060294924162458
14955137 171 16832093940172382225
15042514 8 18048880985262550162
15490181 8 18408608054139905953
15502722 9 18268149760402887637
15906896 17 18046061824601018922
16752209 62 18051123997652385786
16945 1 18192150627347820320
20567600 347 18412538817094694895
20645476 183 18263362645615572364
21524375 3 18335412499879800833
21731228 192 18410569600027135848
22112679 90 17256831398951688568
2255824 54 18194685852396149431
22907989 373 17832149689801441429
23366157 5 18046067060350515473
23419403 2 17395631221274897266
23557571 272 17695632140534016624
23559900 14 17978502045402237433
23598288 3 17901107735202236666
23728640 28 18267007539794439490
2748010 2 18265638600256862435
3091708 16 9264747196358052635
3187 122 16612465920761278553
34934 24 17040923633315346745
352729 6 18336270157804495377
4409770 3 18122347053632251726
458136 41 18340222790574539105
474229 33 18337107994650265347
532947 4 18197221347975158142
6138700 20 18052258398038381870
6443956 14 17979635633031449632
7164475 11 17759525865030285380
7364860 26 18126279736305390417
81228 2 17693932303598315747
81539 233 18337381652491293077
84936 182 18200873954992363033
90316 7 17619074270819574642
9981440 41 18410285904816233617

> <PUBCHEM_SHAPE_MULTIPOLES>
386.03
5.25
5.01
1.12
2.15
5.82
-0.03
-6.46
-0.03
-0.58
-0.55
-0.61
0.21
0.31

> <PUBCHEM_SHAPE_SELFOVERLAP>
828.796

> <PUBCHEM_SHAPE_VOLUME>
209.8

> <PUBCHEM_COORDINATE_TYPE>
2
5
10

$$$$
201042
  -OEChem-12271618363D

 36 37  0     1  0  0  0  0  0999 V2000
   -1.6548   -2.3777    0.4067 N   0  0  0  0  0  0  0  0  0  0  0  0
   -0.0115   -0.5188    0.5676 C   0  0  0  0  0  0  0  0  0  0  0  0
   -0.2988   -1.9560    0.0269 C   0  0  1  0  0  0  0  0  0  0  0  0
    1.3686    0.0262    0.1976 C   0  0  0  0  0  0  0  0  0  0  0  0
   -1.0939    0.4988    0.2126 C   0  0  0  0  0  0  0  0  0  0  0  0
    0.6928   -2.9898    0.5758 C   0  0  0  0  0  0  0  0  0  0  0  0
    1.9796    0.9123    1.0557 C   0  0  0  0  0  0  0  0  0  0  0  0
   -1.3197    1.5512    1.0719 C   0  0  0  0  0  0  0  0  0  0  0  0
    1.9485   -0.3898   -0.9792 C   0  0  0  0  0  0  0  0  0  0  0  0
   -1.8052    0.3281   -0.9544 C   0  0  0  0  0  0  0  0  0  0  0  0
   -1.9581   -3.6806   -0.1576 C   0  0  0  0  0  0  0  0  0  0  0  0
    3.2385    1.4094    0.7185 C   0  0  0  0  0  0  0  0  0  0  0  0
   -2.3080    2.4806    0.7477 C   0  0  0  0  0  0  0  0  0  0  0  0
    3.2076    0.1073   -1.3163 C   0  0  0  0  0  0  0  0  0  0  0  0
   -2.7933    1.2578   -1.2786 C   0  0  0  0  0  0  0  0  0  0  0  0
    3.8524    1.0069   -0.4673 C   0  0  0  0  0  0  0  0  0  0  0  0
   -3.0447    2.3340   -0.4275 C   0  0  0  0  0  0  0  0  0  0  0  0
   -0.0255   -0.6231    1.6654 H   0  0  0  0  0  0  0  0  0  0  0  0
   -0.2360   -1.9778   -1.0661 H   0  0  0  0  0  0  0  0  0  0  0  0
    1.7320   -2.6672    0.4660 H   0  0  0  0  0  0  0  0  0  0  0  0
    0.5315   -3.1738    1.6447 H   0  0  0  0  0  0  0  0  0  0  0  0
    0.6268   -3.9473    0.0485 H   0  0  0  0  0  0  0  0  0  0  0  0
   -1.7451   -2.4103    1.4215 H   0  0  0  0  0  0  0  0  0  0  0  0
    1.5243    1.2215    1.9904 H   0  0  0  0  0  0  0  0  0  0  0  0
   -0.7685    1.6704    1.9986 H   0  0  0  0  0  0  0  0  0  0  0  0
    1.4766   -1.0635   -1.6828 H   0  0  0  0  0  0  0  0  0  0  0  0
   -1.6205   -0.4717   -1.6615 H   0  0  0  0  0  0  0  0  0  0  0  0
   -1.7346   -3.7342   -1.2285 H   0  0  0  0  0  0  0  0  0  0  0  0
   -3.0331   -3.8629   -0.0521 H   0  0  0  0  0  0  0  0  0  0  0  0
   -1.4546   -4.4991    0.3655 H   0  0  0  0  0  0  0  0  0  0  0  0
    3.7425    2.1068    1.3812 H   0  0  0  0  0  0  0  0  0  0  0  0
   -2.5063    3.3166    1.4121 H   0  0  0  0  0  0  0  0  0  0  0  0
    3.6838   -0.2010   -2.2426 H   0  0  0  0  0  0  0  0  0  0  0  0
   -3.3621    1.1486   -2.1975 H   0  0  0  0  0  0  0  0  0  0  0  0
    4.8324    1.3943   -0.7301 H   0  0  0  0  0  0  0  0  0  0  0  0
   -3.8135    3.0583   -0.6804 H   0  0  0  0  0  0  0  0  0  0  0  0
  1  3  1  0  0  0  0
  1 11  1  0  0  0  0
  1 23  1  0  0  0  0
  2  3  1  0  0  0  0
  2  4  1  0  0  0  0
  2  5  1  0  0  0  0
  2 18  1  0  0  0  0
  3  6  1  0  0  0  0
  3 19  1  0  0  0  0
  4  7  2  0  0  0  0
  4  9  1  0  0  0  0
  5  8  2  0  0  0  0
  5 10  1  0  0  0  0
  6 20  1  0  0  0  0
  6 21  1  0  0  0  0
  6 22  1  0  0  0  0
  7 12  1  0  0  0  0
  7 24  1  0  0  0  0
  8 13  1  0  0  0  0
  8 25  1  0  0  0  0
  9 14  2  0  0  0  0
  9 26  1  0  0  0  0
 10 15  2  0  0  0  0
 10 27  1  0  0  0  0
 11 28  1  0  0  0  0
 11 29  1  0  0  0  0
 11 30  1  0  0  0  0
 12 16  2  0  0  0  0
 12 31  1  0  0  0  0
 13 17  2  0  0  0  0
 13 32  1  0  0  0  0
 14 16  1  0  0  0  0
 14 33  1  0  0  0  0
 15 17  1  0  0  0  0
 15 34  1  0  0  0  0
 16 35  1  0  0  0  0
 17 36  1  0  0  0  0
M  END
> <PUBCHEM_COMPOUND_CID>
201042

> <PUBCHEM_CONFORMER_RMSD>
0.6

> <PUBCHEM_CONFORMER_DIVERSEORDER>
1
4
6
3
7
5
8
2

> <PUBCHEM_MMFF94_PARTIAL_CHARGES>
27
1 -0.9
10 -0.15
11 0.27
12 -0.15
13 -0.15
14 -0.15
15 -0.15
16 -0.15
17 -0.15
2 0.29
23 0.36
24 0.15
25 0.15
26 0.15
27 0.15
3 0.27
31 0.15
32 0.15
33 0.15
34 0.15
35 0.15
36 0.15
4 -0.14
5 -0.14
7 -0.15
8 -0.15
9 -0.15

> <PUBCHEM_EFFECTIVE_ROTOR_COUNT>
4

> <PUBCHEM_PHARMACOPHORE_FEATURES>
4
1 1 cation
1 1 donor
6 4 7 9 12 14 16 rings
6 5 8 10 13 15 17 rings

> <PUBCHEM_HEAVY_ATOM_COUNT>
17

> <PUBCHEM_ATOM_DEF_STEREO_COUNT>
0

> <PUBCHEM_ATOM_UDEF_STEREO_COUNT>
1

> <PUBCHEM_BOND_DEF_STEREO_COUNT>
0

> <PUBCHEM_BOND_UDEF_STEREO_COUNT>
0

> <PUBCHEM_ISOTOPIC_ATOM_COUNT>
0

> <PUBCHEM_COMPONENT_COUNT>
1

> <PUBCHEM_CACTVS_TAUTO_COUNT>
1

> <PUBCHEM_CONFORMER_ID>
0003115200000001

> <PUBCHEM_MMFF94_ENERGY>
53.5401

> <PUBCHEM_FEATURE_SELFOVERLAP>
20.297

> <PUBCHEM_SHAPE_FINGERPRINT>
10165383 225 18048068218504922916
11640471 11 17749379382471064764
11725454 13 17128412611652342016
12138202 97 18411701015009213164
12173636 292 18338520746564341685
12251169 10 12829501328425137500
12730499 353 18120665639051928353
12788726 201 17973159818855438610
13294875 104 18268419141036367274
13681431 1 17181936545128344059
13764800 53 18408328799730080137
14955137 171 17620765976664623411
15309172 13 18188497873627066029
15490181 7 18338246985032253650
16752209 62 18117545430719963882
16945 1 18337667619734523049
17134986 127 18262802843799332620
17357779 13 17911225441175099639
18186145 218 18269561546128397588
18534176 82 18342737472361644588
19765921 60 18128811954539340353
20097449 115 17615408494794687843
20510252 161 18194400219738109098
20600515 1 17539676319879727758
20711985 344 18191308384382686418
21160774 45 18410296951730171867
21330990 113 18267326359527619659
21524375 3 18187647938232352616
2255824 54 17906168447817133867
22802520 49 18060147565243587784
22907989 373 18267316515114404780
23402539 116 18051405464213287302
23419403 2 17199376337443675491
23557571 272 18051136088412644052
23559900 14 18271816666959150606
23598291 2 17410772467437421149
25 1 18127703633981034860
2748010 2 18191605067875313915
305870 269 18192708951737644712
350125 39 18335711481275286707
458136 41 18122078511313668289
6049 1 17987248905140530432
6442390 28 18268168499603468417
7364860 26 17834108645928509105
74978 22 18410012135295473464
81228 2 18120104028415744258
84936 182 18053374405754469904
9981440 41 17558238125325330104

> <PUBCHEM_SHAPE_MULTIPOLES>
344.87
5.4
3.64
1.2
2.86
3.92
0.17
-3.81
1.36
-2.98
-0.63
0.14
-0.36
0.19

> <PUBCHEM_SHAPE_SELFOVERLAP>
729.041

> <PUBCHEM_SHAPE_VOLUME>
192.4

> <PUBCHEM_COORDINATE_TYPE>
2
5
10

$$$$
20111961
  -OEChem-12271619343D

 41 43  0     1  0  0  0  0  0999 V2000
   -1.0641    0.2386    2.2021 O   0  0  0  0  0  0  0  0  0  0  0  0
    3.4079    0.6023   -1.6824 O   0  0  0  0  0  0  0  0  0  0  0  0
    4.6799   -0.7775   -0.1706 O   0  0  0  0  0  0  0  0  0  0  0  0
   -2.6743   -0.5979   -0.0291 N   0  0  0  0  0  0  0  0  0  0  0  0
   -1.6573    0.4384   -0.1293 C   0  0  1  0  0  0  0  0  0  0  0  0
   -3.6793   -0.4980   -1.0871 C   0  0  0  0  0  0  0  0  0  0  0  0
   -2.1158   -1.9431   -0.1618 C   0  0  0  0  0  0  0  0  0  0  0  0
   -4.3739   -1.8505   -1.0269 C   0  0  0  0  0  0  0  0  0  0  0  0
   -3.3475   -2.7994   -0.4155 C   0  0  0  0  0  0  0  0  0  0  0  0
   -2.3245    1.8193   -0.0296 C   0  0  0  0  0  0  0  0  0  0  0  0
   -0.6936    0.2024    1.0296 C   0  0  0  0  0  0  0  0  0  0  0  0
   -1.3005    2.9586   -0.0678 C   0  0  0  0  0  0  0  0  0  0  0  0
    0.7391   -0.0783    0.7417 C   0  0  0  0  0  0  0  0  0  0  0  0
   -1.9788    4.3175    0.0094 C   0  0  0  0  0  0  0  0  0  0  0  0
    1.3345    0.4594   -0.4017 C   0  0  0  0  0  0  0  0  0  0  0  0
    1.4813   -0.8835    1.6238 C   0  0  0  0  0  0  0  0  0  0  0  0
    2.6649    0.1709   -0.6270 C   0  0  0  0  0  0  0  0  0  0  0  0
    3.3912   -0.6171    0.2362 C   0  0  0  0  0  0  0  0  0  0  0  0
    2.8272   -1.1601    1.3723 C   0  0  0  0  0  0  0  0  0  0  0  0
    4.6836   -0.0020   -1.3863 C   0  0  0  0  0  0  0  0  0  0  0  0
   -1.1522    0.3574   -1.0964 H   0  0  0  0  0  0  0  0  0  0  0  0
   -3.2245   -0.3597   -2.0764 H   0  0  0  0  0  0  0  0  0  0  0  0
   -4.4088    0.2996   -0.9158 H   0  0  0  0  0  0  0  0  0  0  0  0
   -1.4321   -2.0208   -1.0173 H   0  0  0  0  0  0  0  0  0  0  0  0
   -1.5930   -2.2846    0.7372 H   0  0  0  0  0  0  0  0  0  0  0  0
   -5.2633   -1.8054   -0.3873 H   0  0  0  0  0  0  0  0  0  0  0  0
   -4.6913   -2.1830   -2.0204 H   0  0  0  0  0  0  0  0  0  0  0  0
   -3.1234   -3.6383   -1.0822 H   0  0  0  0  0  0  0  0  0  0  0  0
   -3.7367   -3.2106    0.5234 H   0  0  0  0  0  0  0  0  0  0  0  0
   -3.0197    1.9795   -0.8617 H   0  0  0  0  0  0  0  0  0  0  0  0
   -2.9065    1.8961    0.8986 H   0  0  0  0  0  0  0  0  0  0  0  0
   -0.5955    2.8749    0.7661 H   0  0  0  0  0  0  0  0  0  0  0  0
   -0.7223    2.9075   -0.9970 H   0  0  0  0  0  0  0  0  0  0  0  0
   -2.6658    4.4624   -0.8306 H   0  0  0  0  0  0  0  0  0  0  0  0
   -1.2314    5.1165   -0.0222 H   0  0  0  0  0  0  0  0  0  0  0  0
   -2.5465    4.4201    0.9397 H   0  0  0  0  0  0  0  0  0  0  0  0
    0.8123    1.1028   -1.0978 H   0  0  0  0  0  0  0  0  0  0  0  0
    1.0173   -1.3071    2.5112 H   0  0  0  0  0  0  0  0  0  0  0  0
    3.4025   -1.7816    2.0490 H   0  0  0  0  0  0  0  0  0  0  0  0
    4.9634   -0.6568   -2.2195 H   0  0  0  0  0  0  0  0  0  0  0  0
    5.4347    0.7910   -1.2945 H   0  0  0  0  0  0  0  0  0  0  0  0
  1 11  2  0  0  0  0
  2 17  1  0  0  0  0
  2 20  1  0  0  0  0
  3 18  1  0  0  0  0
  3 20  1  0  0  0  0
  4  5  1  0  0  0  0
  4  6  1  0  0  0  0
  4  7  1  0  0  0  0
  5 10  1  0  0  0  0
  5 11  1  0  0  0  0
  5 21  1  0  0  0  0
  6  8  1  0  0  0  0
  6 22  1  0  0  0  0
  6 23  1  0  0  0  0
  7  9  1  0  0  0  0
  7 24  1  0  0  0  0
  7 25  1  0  0  0  0
  8  9  1  0  0  0  0
  8 26  1  0  0  0  0
  8 27  1  0  0  0  0
  9 28  1  0  0  0  0
  9 29  1  0  0  0  0
 10 12  1  0  0  0  0
 10 30  1  0  0  0  0
 10 31  1  0  0  0  0
 11 13  1  0  0  0  0
 12 14  1  0  0  0  0
 12 32  1  0  0  0  0
 12 33  1  0  0  0  0
 13 15  2  0  0  0  0
 13 16  1  0  0  0  0
 14 34  1  0  0  0  0
 14 35  1  0  0  0  0
 14 36  1  0  0  0  0
 15 17  1  0  0  0  0
 15 37  1  0  0  0  0
 16 19  2  0  0  0  0
 16 38  1  0  0  0  0
 17 18  2  0  0  0  0
 18 19  1  0  0  0  0
 19 39  1  0  0  0  0
 20 40  1  0  0  0  0
 20 41  1  0  0  0  0
M  END
> <PUBCHEM_COMPOUND_CID>
20111961

> <PUBCHEM_CONFORMER_RMSD>
0.8

> <PUBCHEM_CONFORMER_DIVERSEORDER>
2
60
42
62
26
18
44
56
37
70
65
17
51
39
28
30
23
43
47
67
69
20
52
15
34
35
33
31
53
46
54
22
25
59
40
1
32
13
36
68
63
29
16
55
61
12
64
11
49
66
24
8
38
41
9
21
48
14
57
19
10
5
45
3
50
27
58
4
6
7

> <PUBCHEM_MMFF94_PARTIAL_CHARGES>
18
1 -0.57
11 0.42
13 0.09
15 -0.15
16 -0.15
17 0.08
18 0.08
19 -0.15
2 -0.36
20 0.56
3 -0.36
37 0.15
38 0.15
39 0.15
4 -0.81
5 0.33
6 0.27
7 0.27

> <PUBCHEM_EFFECTIVE_ROTOR_COUNT>
6.6

> <PUBCHEM_PHARMACOPHORE_FEATURES>
8
1 1 acceptor
1 14 hydrophobe
1 2 acceptor
1 3 acceptor
1 4 cation
5 2 3 17 18 20 rings
5 4 6 7 8 9 rings
6 13 15 16 17 18 19 rings

> <PUBCHEM_HEAVY_ATOM_COUNT>
20

> <PUBCHEM_ATOM_DEF_STEREO_COUNT>
0

> <PUBCHEM_ATOM_UDEF_STEREO_COUNT>
1

> <PUBCHEM_BOND_DEF_STEREO_COUNT>
0

> <PUBCHEM_BOND_UDEF_STEREO_COUNT>
0

> <PUBCHEM_ISOTOPIC_ATOM_COUNT>
0

> <PUBCHEM_COMPONENT_COUNT>
1

> <PUBCHEM_CACTVS_TAUTO_COUNT>
2

> <PUBCHEM_CONFORMER_ID>
0132E25900000002

> <PUBCHEM_MMFF94_ENERGY>
42.1291

> <PUBCHEM_FEATURE_SELFOVERLAP>
40.75

> <PUBCHEM_SHAPE_FINGERPRINT>
11045515 52 18187644764695009709
11543360 7 18341621434121531478
11578080 2 17535425401779404788
11796584 16 17843124697944966518
11833330 49 18338223938607086177
12173636 292 18123175823660044133
12403260 363 18261107500676588576
12553582 1 18410288159921859819
12714826 92 17989202646718190071
12788726 201 18335696109945543451
13009979 54 17898265261057621530
13583140 156 17702358695143069418
14251757 5 18335695036509804597
14386348 63 17060621117913198510
15475509 8 18273218599913138759
15842332 3 17969494905828444882
15906896 17 18189625934334722329
16752209 62 18341319025147562127
17349148 13 17386272260457378504
1813 80 18129390461169989999
192875 21 17023447708194386024
19862831 5 17822003241934489023
200 152 18113335340435558110
20600515 1 17986688154104636103
20671657 53 18269836591739077903
20871999 31 18343303660456474623
21524375 3 17755865216827383625
22094290 60 18413671305254425142
22620623 9 18059844031494368685
22849341 161 18269568298623621603
22907989 373 18337940204508980125
231179 274 14562527401619550822
23382010 3 16589136303091616099
23402539 116 18334296461191177726
23402655 69 17531238448520459990
23557571 272 18201140127095446224
23559900 14 18271514390390208360
23598288 3 18189053088829411369
23598291 2 17897717674365812794
25147074 1 17895749570358830426
3057174 1 17477472115712179277
3082319 5 18113612395811858370
4921388 177 17988652843453985513
495365 180 13334997414228223888
531348 171 18194697973232053358
603831 33 18259701194548620330
6049 1 17632004299939412672
621550 5 17775288312958940025
6786 2 17194638176894417089
7164475 11 18336819801769788150
7364860 26 17691113156496756797
7471813 234 18334852857562894228
7615 1 17896307039707278040
81228 2 18343577435232167665

> <PUBCHEM_SHAPE_MULTIPOLES>
389
8.31
3.24
1.48
4.93
3.89
0.34
-4.14
-3.85
-4.99
-0.19
0.89
-0.23
-1.21

> <PUBCHEM_SHAPE_SELFOVERLAP>
827.653

> <PUBCHEM_SHAPE_VOLUME>
219.1

> <PUBCHEM_COORDINATE_TYPE>
2
5
10

$$$$
20326296
  -OEChem-12271619153D

 31 31  0     1  0  0  0  0  0999 V2000
    0.6601    0.3805    1.9444 O   0  0  0  0  0  0  0  0  0  0  0  0
    2.5172   -0.4604   -0.0893 N   0  0  0  0  0  0  0  0  0  0  0  0
    1.5073    0.5737   -0.3075 C   0  0  2  0  0  0  0  0  0  0  0  0
    2.1516    1.9578   -0.1418 C   0  0  0  0  0  0  0  0  0  0  0  0
    0.4220    0.3371    0.7383 C   0  0  0  0  0  0  0  0  0  0  0  0
    2.0970   -1.7236   -0.6759 C   0  0  0  0  0  0  0  0  0  0  0  0
    1.1389    3.0873   -0.2861 C   0  0  0  0  0  0  0  0  0  0  0  0
   -0.9689    0.0473    0.2948 C   0  0  0  0  0  0  0  0  0  0  0  0
    3.1401   -2.8058   -0.4546 C   0  0  0  0  0  0  0  0  0  0  0  0
   -1.4417    0.5742   -0.9073 C   0  0  0  0  0  0  0  0  0  0  0  0
   -1.7997   -0.7514    1.0806 C   0  0  0  0  0  0  0  0  0  0  0  0
   -2.7451    0.3026   -1.3231 C   0  0  0  0  0  0  0  0  0  0  0  0
   -3.1031   -1.0231    0.6647 C   0  0  0  0  0  0  0  0  0  0  0  0
   -3.5757   -0.4961   -0.5374 C   0  0  0  0  0  0  0  0  0  0  0  0
    1.1295    0.5009   -1.3309 H   0  0  0  0  0  0  0  0  0  0  0  0
    2.9424    2.0933   -0.8902 H   0  0  0  0  0  0  0  0  0  0  0  0
    2.6266    2.0448    0.8441 H   0  0  0  0  0  0  0  0  0  0  0  0
    3.3995   -0.1777   -0.5160 H   0  0  0  0  0  0  0  0  0  0  0  0
    1.9366   -1.6129   -1.7552 H   0  0  0  0  0  0  0  0  0  0  0  0
    1.1566   -2.0696   -0.2331 H   0  0  0  0  0  0  0  0  0  0  0  0
    0.6627    3.0650   -1.2709 H   0  0  0  0  0  0  0  0  0  0  0  0
    1.6444    4.0534   -0.1846 H   0  0  0  0  0  0  0  0  0  0  0  0
    0.3616    3.0410    0.4821 H   0  0  0  0  0  0  0  0  0  0  0  0
    4.0956   -2.5359   -0.9169 H   0  0  0  0  0  0  0  0  0  0  0  0
    3.3120   -2.9759    0.6136 H   0  0  0  0  0  0  0  0  0  0  0  0
    2.8063   -3.7498   -0.8973 H   0  0  0  0  0  0  0  0  0  0  0  0
   -0.8395    1.2198   -1.5366 H   0  0  0  0  0  0  0  0  0  0  0  0
   -1.4472   -1.1749    2.0175 H   0  0  0  0  0  0  0  0  0  0  0  0
   -3.1156    0.7174   -2.2561 H   0  0  0  0  0  0  0  0  0  0  0  0
   -3.7497   -1.6458    1.2760 H   0  0  0  0  0  0  0  0  0  0  0  0
   -4.5909   -0.7068   -0.8606 H   0  0  0  0  0  0  0  0  0  0  0  0
  1  5  2  0  0  0  0
  2  3  1  0  0  0  0
  2  6  1  0  0  0  0
  2 18  1  0  0  0  0
  3  4  1  0  0  0  0
  3  5  1  0  0  0  0
  3 15  1  0  0  0  0
  4  7  1  0  0  0  0
  4 16  1  0  0  0  0
  4 17  1  0  0  0  0
  5  8  1  0  0  0  0
  6  9  1  0  0  0  0
  6 19  1  0  0  0  0
  6 20  1  0  0  0  0
  7 21  1  0  0  0  0
  7 22  1  0  0  0  0
  7 23  1  0  0  0  0
  8 10  2  0  0  0  0
  8 11  1  0  0  0  0
  9 24  1  0  0  0  0
  9 25  1  0  0  0  0
  9 26  1  0  0  0  0
 10 12  1  0  0  0  0
 10 27  1  0  0  0  0
 11 13  2  0  0  0  0
 11 28  1  0  0  0  0
 12 14  2  0  0  0  0
 12 29  1  0  0  0  0
 13 14  1  0  0  0  0
 13 30  1  0  0  0  0
 14 31  1  0  0  0  0
M  END
> <PUBCHEM_COMPOUND_CID>
20326296

> <PUBCHEM_CONFORMER_RMSD>
0.6

> <PUBCHEM_CONFORMER_DIVERSEORDER>
2
65
17
104
67
76
56
32
105
23
89
103
46
75
12
91
97
96
29
13
44
24
92
54
31
82
58
100
77
61
88
73
90
93
80
101
102
8
59
87
64
78
84
22
98
72
9
99
74
50
4
83
48
36
33
21
85
51
41
53
86
62
34
63
66
68
94
52
16
47
69
43
18
70
27
20
49
30
11
37
79
7
81
38
39
55
35
10
60
25
3
57
95
26
15
1
71
14
42
40
45
5
6
28
19

> <PUBCHEM_MMFF94_PARTIAL_CHARGES>
17
1 -0.57
10 -0.15
11 -0.15
12 -0.15
13 -0.15
14 -0.15
18 0.36
2 -0.9
27 0.15
28 0.15
29 0.15
3 0.33
30 0.15
31 0.15
5 0.42
6 0.27
8 0.09

> <PUBCHEM_EFFECTIVE_ROTOR_COUNT>
5

> <PUBCHEM_PHARMACOPHORE_FEATURES>
5
1 1 acceptor
1 2 cation
1 2 donor
1 7 hydrophobe
6 8 10 11 12 13 14 rings

> <PUBCHEM_HEAVY_ATOM_COUNT>
14

> <PUBCHEM_ATOM_DEF_STEREO_COUNT>
0

> <PUBCHEM_ATOM_UDEF_STEREO_COUNT>
1

> <PUBCHEM_BOND_DEF_STEREO_COUNT>
0

> <PUBCHEM_BOND_UDEF_STEREO_COUNT>
0

> <PUBCHEM_ISOTOPIC_ATOM_COUNT>
0

> <PUBCHEM_COMPONENT_COUNT>
1

> <PUBCHEM_CACTVS_TAUTO_COUNT>
2

> <PUBCHEM_CONFORMER_ID>
0136279800000002

> <PUBCHEM_MMFF94_ENERGY>
23.198

> <PUBCHEM_FEATURE_SELFOVERLAP>
25.371

> <PUBCHEM_SHAPE_FINGERPRINT>
1 1 18195530522155514492
107287 299 18118409668086078477
11578080 2 17559658561015052824
12524768 44 18114738364801940853
12932764 1 17241033414405390499
14252887 29 17752503207075640363
14648413 74 18335134319301307261
15219456 202 18261110841427623069
16945 1 18340215196792511776
17834072 14 18263917740469565090
19786989 88 18193278722025246537
20201158 50 18408042918074770986
20361792 2 18200599077317209134
20645477 70 18337382829523523767
20671657 53 18340213972990830054
20711985 344 17833545691906935018
21524375 3 17467629733954249536
22713019 5 17758950433469359380
22802520 49 18260548913781932821
23114952 82 18186526522392933580
23211744 41 17607522732759348304
232386 152 16415759730018156766
23526113 38 18260823769950289610
23557571 272 17459758210246802827
23598291 2 17843435961996865584
23728640 28 16678662534108274338
3060560 45 18195249038620609052
6049 1 17968105239306010025
7364860 26 18338234972172094364
81228 2 17834396718381343816

> <PUBCHEM_SHAPE_MULTIPOLES>
277.26
5.35
2.62
1.25
2.11
0.59
-0.29
-2.76
1.15
-3.48
0.5
0.48
-0.03
0.74

> <PUBCHEM_SHAPE_SELFOVERLAP>
556.883

> <PUBCHEM_SHAPE_VOLUME>
163.3

> <PUBCHEM_COORDINATE_TYPE>
2
5
10

$$$$
204386
  -OEChem-12271619233D

 38 40  0     1  0  0  0  0  0999 V2000
   -0.0261   -0.6241    1.8238 O   0  0  0  0  0  0  0  0  0  0  0  0
    1.0872   -2.4696    0.0241 N   0  0  0  0  0  0  0  0  0  0  0  0
   -0.0643   -1.6267   -0.3021 C   0  0  2  0  0  0  0  0  0  0  0  0
   -0.0044   -0.2905    0.4174 C   0  0  0  0  0  0  0  0  0  0  0  0
   -1.2362   -2.4923    0.1359 C   0  0  0  0  0  0  0  0  0  0  0  0
   -0.7781   -3.9167   -0.1534 C   0  0  0  0  0  0  0  0  0  0  0  0
    0.7178   -3.8125   -0.4180 C   0  0  0  0  0  0  0  0  0  0  0  0
   -1.2525    0.5441    0.0698 C   0  0  0  0  0  0  0  0  0  0  0  0
    1.2756    0.5362    0.1849 C   0  0  0  0  0  0  0  0  0  0  0  0
   -1.3798    1.0165   -1.2107 C   0  0  0  0  0  0  0  0  0  0  0  0
    1.4338    1.6980    0.8947 C   0  0  0  0  0  0  0  0  0  0  0  0
   -2.1748    0.7729    1.0578 C   0  0  0  0  0  0  0  0  0  0  0  0
    2.1930    0.0688   -0.7198 C   0  0  0  0  0  0  0  0  0  0  0  0
   -2.5094    1.7717   -1.5255 C   0  0  0  0  0  0  0  0  0  0  0  0
    2.5922    2.4461    0.6846 C   0  0  0  0  0  0  0  0  0  0  0  0
   -3.3045    1.5280    0.7428 C   0  0  0  0  0  0  0  0  0  0  0  0
    3.3515    0.8170   -0.9298 C   0  0  0  0  0  0  0  0  0  0  0  0
   -3.4718    2.0274   -0.5489 C   0  0  0  0  0  0  0  0  0  0  0  0
    3.5509    2.0056   -0.2276 C   0  0  0  0  0  0  0  0  0  0  0  0
   -0.1057   -1.4961   -1.3928 H   0  0  0  0  0  0  0  0  0  0  0  0
   -2.1514   -2.2560   -0.4177 H   0  0  0  0  0  0  0  0  0  0  0  0
   -1.4698   -2.4110    1.2035 H   0  0  0  0  0  0  0  0  0  0  0  0
   -0.9888   -4.5656    0.7038 H   0  0  0  0  0  0  0  0  0  0  0  0
   -1.2973   -4.3293   -1.0251 H   0  0  0  0  0  0  0  0  0  0  0  0
    1.2148   -2.4877    1.0363 H   0  0  0  0  0  0  0  0  0  0  0  0
    1.2850   -4.5824    0.1139 H   0  0  0  0  0  0  0  0  0  0  0  0
    0.9276   -3.9218   -1.4881 H   0  0  0  0  0  0  0  0  0  0  0  0
    0.8858   -0.7617    2.1318 H   0  0  0  0  0  0  0  0  0  0  0  0
   -0.6411    0.8238   -1.9816 H   0  0  0  0  0  0  0  0  0  0  0  0
    0.6989    2.0492    1.6117 H   0  0  0  0  0  0  0  0  0  0  0  0
   -2.0817    0.3995    2.0712 H   0  0  0  0  0  0  0  0  0  0  0  0
    2.0724   -0.8006   -1.3507 H   0  0  0  0  0  0  0  0  0  0  0  0
   -2.6401    2.1600   -2.5314 H   0  0  0  0  0  0  0  0  0  0  0  0
    2.7479    3.3714    1.2317 H   0  0  0  0  0  0  0  0  0  0  0  0
   -4.0548    1.7268    1.5026 H   0  0  0  0  0  0  0  0  0  0  0  0
    4.0912    0.4837   -1.6521 H   0  0  0  0  0  0  0  0  0  0  0  0
   -4.3516    2.6151   -0.7942 H   0  0  0  0  0  0  0  0  0  0  0  0
    4.4511    2.5900   -0.3939 H   0  0  0  0  0  0  0  0  0  0  0  0
  1  4  1  0  0  0  0
  1 28  1  0  0  0  0
  2  3  1  0  0  0  0
  2  7  1  0  0  0  0
  2 25  1  0  0  0  0
  3  4  1  0  0  0  0
  3  5  1  0  0  0  0
  3 20  1  0  0  0  0
  4  8  1  0  0  0  0
  4  9  1  0  0  0  0
  5  6  1  0  0  0  0
  5 21  1  0  0  0  0
  5 22  1  0  0  0  0
  6  7  1  0  0  0  0
  6 23  1  0  0  0  0
  6 24  1  0  0  0  0
  7 26  1  0  0  0  0
  7 27  1  0  0  0  0
  8 10  2  0  0  0  0
  8 12  1  0  0  0  0
  9 11  2  0  0  0  0
  9 13  1  0  0  0  0
 10 14  1  0  0  0  0
 10 29  1  0  0  0  0
 11 15  1  0  0  0  0
 11 30  1  0  0  0  0
 12 16  2  0  0  0  0
 12 31  1  0  0  0  0
 13 17  2  0  0  0  0
 13 32  1  0  0  0  0
 14 18  2  0  0  0  0
 14 33  1  0  0  0  0
 15 19  2  0  0  0  0
 15 34  1  0  0  0  0
 16 18  1  0  0  0  0
 16 35  1  0  0  0  0
 17 19  1  0  0  0  0
 17 36  1  0  0  0  0
 18 37  1  0  0  0  0
 19 38  1  0  0  0  0
M  END
> <PUBCHEM_COMPOUND_CID>
204386

> <PUBCHEM_CONFORMER_RMSD>
0.6

> <PUBCHEM_CONFORMER_DIVERSEORDER>
1
6
11
4
9
2
8
10
5
3
7

> <PUBCHEM_MMFF94_PARTIAL_CHARGES>
29
1 -0.68
10 -0.15
11 -0.15
12 -0.15
13 -0.15
14 -0.15
15 -0.15
16 -0.15
17 -0.15
18 -0.15
19 -0.15
2 -0.9
25 0.36
28 0.4
29 0.15
3 0.27
30 0.15
31 0.15
32 0.15
33 0.15
34 0.15
35 0.15
36 0.15
37 0.15
38 0.15
4 0.57
7 0.27
8 -0.14
9 -0.14

> <PUBCHEM_EFFECTIVE_ROTOR_COUNT>
4

> <PUBCHEM_PHARMACOPHORE_FEATURES>
7
1 1 acceptor
1 1 donor
1 2 cation
1 2 donor
5 2 3 5 6 7 rings
6 8 10 12 14 16 18 rings
6 9 11 13 15 17 19 rings

> <PUBCHEM_HEAVY_ATOM_COUNT>
19

> <PUBCHEM_ATOM_DEF_STEREO_COUNT>
0

> <PUBCHEM_ATOM_UDEF_STEREO_COUNT>
1

> <PUBCHEM_BOND_DEF_STEREO_COUNT>
0

> <PUBCHEM_BOND_UDEF_STEREO_COUNT>
0

> <PUBCHEM_ISOTOPIC_ATOM_COUNT>
0

> <PUBCHEM_COMPONENT_COUNT>
1

> <PUBCHEM_CACTVS_TAUTO_COUNT>
1

> <PUBCHEM_CONFORMER_ID>
00031E6200000001

> <PUBCHEM_MMFF94_ENERGY>
65.0757

> <PUBCHEM_FEATURE_SELFOVERLAP>
35.525

> <PUBCHEM_SHAPE_FINGERPRINT>
1 1 18337672992733348684
10165383 225 18265360376375398068
10871710 139 17106525943242836420
1100329 8 18267306439485598662
11101153 10 17109600217026527708
11322862 65 18269006442921632782
11578080 2 12303798602556929762
11582403 64 17026517527527078317
116883 192 17764028364565532502
11833330 49 17760077819260481368
12173636 292 18340771532660301893
12553582 1 17259354262921194235
12730499 353 18337680702959767921
13004483 165 17619058873546551546
13140716 1 18410854335179299826
13681431 1 17688299093159390162
13911987 19 17759827852460254470
13955234 65 18195245512742453353
14022347 108 17469330687201054946
14817 1 10905979785072011785
14955137 171 18195243309039453042
15309172 13 18408890633087274577
15490181 7 18336547204580188242
15502722 9 18194119616740064229
16945 1 18195530289831511536
17134986 127 18408599245199295036
17357779 13 17551499377124593951
1813 80 17051336575646072751
18186145 218 18343026570889871252
18785283 64 18118980100072924633
19591789 44 18411427219181255251
19765921 60 18131344194142404049
20600515 1 17116645887024664510
21041028 32 17331409666325237273
21285901 2 17840593921923437599
21304303 282 17404242751015429724
21524375 3 18259981578419053992
2255824 54 18053658084418187855
22907989 373 17977103783933001876
23114952 82 17755587044590469829
23419403 2 17106558576324716858
23557571 272 17545878691063751380
23598291 2 17269487439402609065
238 59 18046603656442728901
25 1 18341338794702762036
2748010 2 18337688476222410326
3060560 45 18338509729651194893
350125 39 18410014350976469178
3729539 64 17978260191514924014
458136 41 18338813208151434065
495365 180 18120353398913285573
5845 1 10574143357562241545
633830 44 17987812821066363605
6442390 28 18339652230075874809
7364860 26 18049439249490924013
81228 2 17831018296705182346
8272917 22 18053388704301835369
84936 182 18199743639912004385
90316 7 17402591443606302714

> <PUBCHEM_SHAPE_MULTIPOLES>
380.16
4.94
4.34
1.22
1.44
5.73
-0.03
-5.34
0.69
-0.97
0.39
-0.33
-0.49
0.57

> <PUBCHEM_SHAPE_SELFOVERLAP>
830.211

> <PUBCHEM_SHAPE_VOLUME>
206.3

> <PUBCHEM_COORDINATE_TYPE>
2
5
10

$$$$
209045
  -OEChem-12271619243D

 32 33  0     1  0  0  0  0  0999 V2000
   -0.0745    1.1417   -1.8634 O   0  0  0  0  0  0  0  0  0  0  0  0
    2.0490    0.1653   -0.1107 N   0  0  0  0  0  0  0  0  0  0  0  0
    1.6845   -1.2504   -0.1578 C   0  0  0  0  0  0  0  0  0  0  0  0
    3.1911    0.2331    0.8005 C   0  0  0  0  0  0  0  0  0  0  0  0
    3.0349   -1.9468   -0.2391 C   0  0  0  0  0  0  0  0  0  0  0  0
    4.0243   -0.9734    0.3939 C   0  0  0  0  0  0  0  0  0  0  0  0
    0.9441    1.0093    0.3194 C   0  0  1  0  0  0  0  0  0  0  0  0
    1.3913    2.4651    0.3402 C   0  0  0  0  0  0  0  0  0  0  0  0
   -0.1910    0.8202   -0.6811 C   0  0  0  0  0  0  0  0  0  0  0  0
   -1.4898    0.2463   -0.2207 C   0  0  0  0  0  0  0  0  0  0  0  0
   -1.8853    0.4698    1.0782 C   0  0  0  0  0  0  0  0  0  0  0  0
   -2.2410   -0.4836   -1.1131 C   0  0  0  0  0  0  0  0  0  0  0  0
   -3.0991   -0.0663    1.5084 C   0  0  0  0  0  0  0  0  0  0  0  0
   -3.4548   -1.0195   -0.6827 C   0  0  0  0  0  0  0  0  0  0  0  0
   -3.8838   -0.8109    0.6281 C   0  0  0  0  0  0  0  0  0  0  0  0
    1.0693   -1.5084   -1.0256 H   0  0  0  0  0  0  0  0  0  0  0  0
    1.1610   -1.5696    0.7529 H   0  0  0  0  0  0  0  0  0  0  0  0
    2.8864    0.1335    1.8502 H   0  0  0  0  0  0  0  0  0  0  0  0
    3.7740    1.1527    0.6882 H   0  0  0  0  0  0  0  0  0  0  0  0
    3.3153   -2.1333   -1.2825 H   0  0  0  0  0  0  0  0  0  0  0  0
    3.0228   -2.9090    0.2826 H   0  0  0  0  0  0  0  0  0  0  0  0
    4.5346   -1.4171    1.2548 H   0  0  0  0  0  0  0  0  0  0  0  0
    4.7877   -0.6912   -0.3408 H   0  0  0  0  0  0  0  0  0  0  0  0
    0.6429    0.7235    1.3302 H   0  0  0  0  0  0  0  0  0  0  0  0
    0.5287    3.1247    0.4910 H   0  0  0  0  0  0  0  0  0  0  0  0
    2.0969    2.6696    1.1520 H   0  0  0  0  0  0  0  0  0  0  0  0
    1.8584    2.7639   -0.6059 H   0  0  0  0  0  0  0  0  0  0  0  0
   -1.3259    1.0797    1.7783 H   0  0  0  0  0  0  0  0  0  0  0  0
   -1.9162   -0.6587   -2.1341 H   0  0  0  0  0  0  0  0  0  0  0  0
   -3.4385    0.1045    2.5259 H   0  0  0  0  0  0  0  0  0  0  0  0
   -4.0655   -1.6003   -1.3678 H   0  0  0  0  0  0  0  0  0  0  0  0
   -4.8298   -1.2265    0.9624 H   0  0  0  0  0  0  0  0  0  0  0  0
  1  9  2  0  0  0  0
  2  3  1  0  0  0  0
  2  4  1  0  0  0  0
  2  7  1  0  0  0  0
  3  5  1  0  0  0  0
  3 16  1  0  0  0  0
  3 17  1  0  0  0  0
  4  6  1  0  0  0  0
  4 18  1  0  0  0  0
  4 19  1  0  0  0  0
  5  6  1  0  0  0  0
  5 20  1  0  0  0  0
  5 21  1  0  0  0  0
  6 22  1  0  0  0  0
  6 23  1  0  0  0  0
  7  8  1  0  0  0  0
  7  9  1  0  0  0  0
  7 24  1  0  0  0  0
  8 25  1  0  0  0  0
  8 26  1  0  0  0  0
  8 27  1  0  0  0  0
  9 10  1  0  0  0  0
 10 11  2  0  0  0  0
 10 12  1  0  0  0  0
 11 13  1  0  0  0  0
 11 28  1  0  0  0  0
 12 14  2  0  0  0  0
 12 29  1  0  0  0  0
 13 15  2  0  0  0  0
 13 30  1  0  0  0  0
 14 15  1  0  0  0  0
 14 31  1  0  0  0  0
 15 32  1  0  0  0  0
M  END
> <PUBCHEM_COMPOUND_CID>
209045

> <PUBCHEM_CONFORMER_RMSD>
0.6

> <PUBCHEM_CONFORMER_DIVERSEORDER>
1
18
10
25
8
26
27
5
17
21
15
20
13
23
22
19
11
3
12
6
24
16
14
7
9
2
4

> <PUBCHEM_MMFF94_PARTIAL_CHARGES>
17
1 -0.57
10 0.09
11 -0.15
12 -0.15
13 -0.15
14 -0.15
15 -0.15
2 -0.81
28 0.15
29 0.15
3 0.27
30 0.15
31 0.15
32 0.15
4 0.27
7 0.33
9 0.42

> <PUBCHEM_EFFECTIVE_ROTOR_COUNT>
4

> <PUBCHEM_PHARMACOPHORE_FEATURES>
4
1 1 acceptor
1 2 cation
5 2 3 4 5 6 rings
6 10 11 12 13 14 15 rings

> <PUBCHEM_HEAVY_ATOM_COUNT>
15

> <PUBCHEM_ATOM_DEF_STEREO_COUNT>
0

> <PUBCHEM_ATOM_UDEF_STEREO_COUNT>
1

> <PUBCHEM_BOND_DEF_STEREO_COUNT>
0

> <PUBCHEM_BOND_UDEF_STEREO_COUNT>
0

> <PUBCHEM_ISOTOPIC_ATOM_COUNT>
0

> <PUBCHEM_COMPONENT_COUNT>
1

> <PUBCHEM_CACTVS_TAUTO_COUNT>
2

> <PUBCHEM_CONFORMER_ID>
0003309500000001

> <PUBCHEM_MMFF94_ENERGY>
35.4916

> <PUBCHEM_FEATURE_SELFOVERLAP>
20.297

> <PUBCHEM_SHAPE_FINGERPRINT>
10465860 71 15864073173806714687
10618630 7 18261395503312304290
11127187 94 16370446652946637283
11543360 7 13551482474576212618
11578080 2 17415523667597782553
12202030 40 17604444023197827163
12251169 10 17775568645500573747
12363563 72 17822291262567771066
12892183 10 17060335202082650650
13296908 3 18335416825054045774
13581323 91 16558751226037652311
14115302 16 13984925360177622257
14251717 144 18411414046511160246
14787075 74 16116533443278405917
15375462 189 18413671292596506650
15375462 478 17489587848627707521
15501101 241 18335700576432170588
15527383 91 18335709338181304697
15775835 57 10447926152785957746
16752209 62 15430301560768445875
16945 1 18411699932419102052
1813 80 18339659845105606132
19862831 5 13767925710754024346
200 152 18060124458477622255
20281407 28 18187082823736778734
20281475 54 18334580135375916078
20361792 2 17967255295021143119
20559304 39 17846223301166592576
20645477 70 18262785384910118839
20671657 53 16950568757411114646
20711985 344 17241592932268914781
20871998 22 18271250404768181926
20871999 31 15864073165443633175
21061003 4 18341041939648319192
21069387 34 18335979887225489991
22445834 79 18131070450175144435
2255824 54 18269559519004041012
22721475 48 18187370908684021266
230 275 13758088380273189985
23382010 3 12396598359004294508
23402539 116 16660641809259060534
23419403 2 14573138732013967434
23557571 272 16950553381439063148
2748010 2 18197201556591427668
4028521 119 9223234031235217987
7097593 13 17917437492597800803
77492 1 17632014259847239229
81228 2 17532080592828635541
83771 10 18411982425582558738
90316 7 17632587028460059305

> <PUBCHEM_SHAPE_MULTIPOLES>
297.84
6.95
1.8
1.27
0.11
0.45
0.16
-3.44
-1.85
-1.41
0.1
0.83
0.18
-0.16

> <PUBCHEM_SHAPE_SELFOVERLAP>
624.246

> <PUBCHEM_SHAPE_VOLUME>
170.6

> <PUBCHEM_COORDINATE_TYPE>
2
5
10

$$$$
2137
  -OEChem-12271620063D

 39 41  0     0  0  0  0  0  0999 V2000
   -3.0792    2.2455    0.5909 O   0  0  0  0  0  0  0  0  0  0  0  0
   -5.4420    1.1047    0.4143 O   0  0  0  0  0  0  0  0  0  0  0  0
   -5.4196   -1.0437    1.1978 O   0  0  0  0  0  0  0  0  0  0  0  0
   -1.5992   -1.3601   -0.5681 N   0  0  0  0  0  0  0  0  0  0  0  0
    0.5569   -0.3670   -1.0349 N   0  0  0  0  0  0  0  0  0  0  0  0
   -0.7305   -0.2388   -0.6154 C   0  0  0  0  0  0  0  0  0  0  0  0
   -1.2265    1.0152   -0.2186 C   0  0  0  0  0  0  0  0  0  0  0  0
   -1.0330   -2.6352   -0.9898 C   0  0  0  0  0  0  0  0  0  0  0  0
    1.3404    0.7358   -1.0596 C   0  0  0  0  0  0  0  0  0  0  0  0
    2.7445    0.5440   -1.5273 C   0  0  0  0  0  0  0  0  0  0  0  0
   -2.9021   -1.2117   -0.1392 C   0  0  0  0  0  0  0  0  0  0  0  0
   -2.6316    1.1608    0.2405 C   0  0  0  0  0  0  0  0  0  0  0  0
   -3.4676   -0.0659    0.2578 C   0  0  0  0  0  0  0  0  0  0  0  0
   -0.3931    2.1354   -0.2551 C   0  0  0  0  0  0  0  0  0  0  0  0
    0.9180    1.9960   -0.6840 C   0  0  0  0  0  0  0  0  0  0  0  0
    3.7211    0.2109   -0.4178 C   0  0  0  0  0  0  0  0  0  0  0  0
   -0.4118   -3.3788    0.1746 C   0  0  0  0  0  0  0  0  0  0  0  0
    3.9398   -1.1145   -0.0886 C   0  0  0  0  0  0  0  0  0  0  0  0
    4.3706    1.2400    0.2393 C   0  0  0  0  0  0  0  0  0  0  0  0
   -4.8675   -0.0873    0.6821 C   0  0  0  0  0  0  0  0  0  0  0  0
    4.8388   -1.4212    0.9329 C   0  0  0  0  0  0  0  0  0  0  0  0
    5.2696    0.9333    1.2608 C   0  0  0  0  0  0  0  0  0  0  0  0
    5.5038   -0.3973    1.6075 C   0  0  0  0  0  0  0  0  0  0  0  0
   -1.8274   -3.2632   -1.4148 H   0  0  0  0  0  0  0  0  0  0  0  0
   -0.3045   -2.5199   -1.8019 H   0  0  0  0  0  0  0  0  0  0  0  0
    3.0906    1.4342   -2.0703 H   0  0  0  0  0  0  0  0  0  0  0  0
    2.7677   -0.2571   -2.2792 H   0  0  0  0  0  0  0  0  0  0  0  0
   -3.4555   -2.1455   -0.1530 H   0  0  0  0  0  0  0  0  0  0  0  0
   -0.7493    3.1166    0.0455 H   0  0  0  0  0  0  0  0  0  0  0  0
    1.5765    2.8571   -0.7185 H   0  0  0  0  0  0  0  0  0  0  0  0
    0.4157   -2.8121    0.6140 H   0  0  0  0  0  0  0  0  0  0  0  0
   -1.1471   -3.5621    0.9652 H   0  0  0  0  0  0  0  0  0  0  0  0
   -0.0213   -4.3462   -0.1562 H   0  0  0  0  0  0  0  0  0  0  0  0
    3.4251   -1.9182   -0.6069 H   0  0  0  0  0  0  0  0  0  0  0  0
    4.1957    2.2790   -0.0240 H   0  0  0  0  0  0  0  0  0  0  0  0
    5.0206   -2.4572    1.2034 H   0  0  0  0  0  0  0  0  0  0  0  0
    5.7875    1.7305    1.7861 H   0  0  0  0  0  0  0  0  0  0  0  0
    6.2036   -0.6361    2.4029 H   0  0  0  0  0  0  0  0  0  0  0  0
   -6.3844    1.1288    0.6856 H   0  0  0  0  0  0  0  0  0  0  0  0
  1 12  2  0  0  0  0
  2 20  1  0  0  0  0
  2 39  1  0  0  0  0
  3 20  2  0  0  0  0
  4  6  1  0  0  0  0
  4  8  1  0  0  0  0
  4 11  1  0  0  0  0
  5  6  1  0  0  0  0
  5  9  2  0  0  0  0
  6  7  2  0  0  0  0
  7 12  1  0  0  0  0
  7 14  1  0  0  0  0
  8 17  1  0  0  0  0
  8 24  1  0  0  0  0
  8 25  1  0  0  0  0
  9 10  1  0  0  0  0
  9 15  1  0  0  0  0
 10 16  1  0  0  0  0
 10 26  1  0  0  0  0
 10 27  1  0  0  0  0
 11 13  2  0  0  0  0
 11 28  1  0  0  0  0
 12 13  1  0  0  0  0
 13 20  1  0  0  0  0
 14 15  2  0  0  0  0
 14 29  1  0  0  0  0
 15 30  1  0  0  0  0
 16 18  2  0  0  0  0
 16 19  1  0  0  0  0
 17 31  1  0  0  0  0
 17 32  1  0  0  0  0
 17 33  1  0  0  0  0
 18 21  1  0  0  0  0
 18 34  1  0  0  0  0
 19 22  2  0  0  0  0
 19 35  1  0  0  0  0
 21 23  2  0  0  0  0
 21 36  1  0  0  0  0
 22 23  1  0  0  0  0
 22 37  1  0  0  0  0
 23 38  1  0  0  0  0
M  END
> <PUBCHEM_COMPOUND_CID>
2137

> <PUBCHEM_CONFORMER_RMSD>
0.8

> <PUBCHEM_CONFORMER_DIVERSEORDER>
1
4
7
6
3
9
8
2
5

> <PUBCHEM_MMFF94_PARTIAL_CHARGES>
31
1 -0.57
10 0.29
11 -0.05
12 0.47
13 0.03
14 -0.15
15 -0.15
16 -0.14
18 -0.15
19 -0.15
2 -0.65
20 0.71
21 -0.15
22 -0.15
23 -0.15
28 0.15
29 0.15
3 -0.57
30 0.15
34 0.15
35 0.15
36 0.15
37 0.15
38 0.15
39 0.5
4 -0.57
5 -0.62
6 0.41
7 0.09
8 0.37
9 0.17

> <PUBCHEM_EFFECTIVE_ROTOR_COUNT>
4

> <PUBCHEM_PHARMACOPHORE_FEATURES>
10
1 1 acceptor
1 13 anion
1 2 acceptor
1 3 acceptor
1 4 cation
1 5 acceptor
3 2 3 20 anion
6 16 18 19 21 22 23 rings
6 4 6 7 11 12 13 rings
6 5 6 7 9 14 15 rings

> <PUBCHEM_HEAVY_ATOM_COUNT>
23

> <PUBCHEM_ATOM_DEF_STEREO_COUNT>
0

> <PUBCHEM_ATOM_UDEF_STEREO_COUNT>
0

> <PUBCHEM_BOND_DEF_STEREO_COUNT>
0

> <PUBCHEM_BOND_UDEF_STEREO_COUNT>
0

> <PUBCHEM_ISOTOPIC_ATOM_COUNT>
0

> <PUBCHEM_COMPONENT_COUNT>
1

> <PUBCHEM_CACTVS_TAUTO_COUNT>
1

> <PUBCHEM_CONFORMER_ID>
0000085900000001

> <PUBCHEM_MMFF94_ENERGY>
63.6528

> <PUBCHEM_FEATURE_SELFOVERLAP>
51.171

> <PUBCHEM_SHAPE_FINGERPRINT>
11045977 3 17917708033147036048
11796584 16 16805041843607805761
12236239 1 17967535678986729892
12422481 6 18189905214382651777
12553582 1 18335983147041994244
12592029 89 18335433339377723171
12596602 18 18114180860603534672
12633257 1 18059847403022304848
12670546 177 10809337815860015608
12839892 36 18408887300334843915
12925494 130 17908701722428662985
13140716 1 18124317369894985983
13533116 47 17821732758100881280
13551218 46 18334293141276806346
13914758 101 17458619000705626637
14022347 108 18266203732322280412
14178342 30 18196949772513209021
14341114 176 18343015580875162776
14341114 328 18337382851462505848
14420673 8 17833548999533698730
14466204 15 18339647746193938545
14528608 73 11455890256400410856
15210252 30 12319442300048666250
16728300 4 17895744107013386699
17959699 21 12463579451874590771
17980427 23 17703502319768396437
1813 80 17240484689441786828
20028762 73 18129388249494792639
20645477 70 15719391755044934924
20775438 99 11460145478269826064
212916 134 18201998824175268610
21637258 2 16226042331766746595
21857420 4 13413319140705242456
21859007 373 17969766524046031485
22122407 14 15698001898471531882
221357 26 10809337828803050034
22182313 1 18267873770072794167
23366157 5 17829614216136294765
23402539 116 18272646866276966941
23559900 14 18059594485309636412
25147074 1 18122908891236740036
2838139 119 14764346007444673738
3680242 22 18410302388673394185
4072396 5 18409452453664159725
465052 167 17822306716160711011
5104073 3 18267038304903864697
56633871 153 18336255748474788026
58807428 26 18339086968944822987
5924683 9 17916290800649095414
7064713 232 18340763754721896530
7970288 3 17023176081841650962

> <PUBCHEM_SHAPE_MULTIPOLES>
445.76
11.91
2.64
1.23
2.62
1.44
-0.03
-0.14
-6.69
-0.93
0.16
0.91
0.05
-0.57

> <PUBCHEM_SHAPE_SELFOVERLAP>
973.149

> <PUBCHEM_SHAPE_VOLUME>
239.6

> <PUBCHEM_COORDINATE_TYPE>
2
5
10

$$$$
214359
  -OEChem-12271619353D

 47 50  0     1  0  0  0  0  0999 V2000
    4.5561   -1.4197   -0.1879 N   0  0  2  0  0  0  0  0  0  0  0  0
    0.6533    0.6534    0.0364 C   0  0  1  0  0  0  0  0  0  0  0  0
    3.0249    0.0910    0.6594 C   0  0  2  0  0  0  0  0  0  0  0  0
    2.0307    1.2051    0.3773 C   0  0  0  0  0  0  0  0  0  0  0  0
    0.0288   -0.1199    1.2208 C   0  0  0  0  0  0  0  0  0  0  0  0
   -1.5097    0.0498    1.1376 C   0  0  1  0  0  0  0  0  0  0  0  0
    4.4192    0.5978    1.0367 C   0  0  0  0  0  0  0  0  0  0  0  0
    3.2754   -0.8086   -0.5452 C   0  0  0  0  0  0  0  0  0  0  0  0
   -0.3978    1.6941   -0.2256 C   0  0  0  0  0  0  0  0  0  0  0  0
   -1.6145    1.3462    0.3768 C   0  0  0  0  0  0  0  0  0  0  0  0
    5.3905   -0.3167    0.2930 C   0  0  0  0  0  0  0  0  0  0  0  0
   -2.2810   -1.0885    0.5037 C   0  0  0  0  0  0  0  0  0  0  0  0
   -0.2920    2.8465   -0.9909 C   0  0  0  0  0  0  0  0  0  0  0  0
   -2.7349    2.1541    0.2412 C   0  0  0  0  0  0  0  0  0  0  0  0
    5.1632   -2.1337   -1.3011 C   0  0  0  0  0  0  0  0  0  0  0  0
   -1.4159    3.6635   -1.1310 C   0  0  0  0  0  0  0  0  0  0  0  0
   -2.6289    3.3206   -0.5177 C   0  0  0  0  0  0  0  0  0  0  0  0
   -3.5888   -1.3553    0.9086 C   0  0  0  0  0  0  0  0  0  0  0  0
   -1.6835   -1.8703   -0.4847 C   0  0  0  0  0  0  0  0  0  0  0  0
   -4.2992   -2.4042    0.3249 C   0  0  0  0  0  0  0  0  0  0  0  0
   -2.3939   -2.9191   -1.0685 C   0  0  0  0  0  0  0  0  0  0  0  0
   -3.7019   -3.1861   -0.6636 C   0  0  0  0  0  0  0  0  0  0  0  0
    0.7064    0.0179   -0.8540 H   0  0  0  0  0  0  0  0  0  0  0  0
    2.6677   -0.5246    1.4963 H   0  0  0  0  0  0  0  0  0  0  0  0
    2.4000    1.8240   -0.4505 H   0  0  0  0  0  0  0  0  0  0  0  0
    1.9693    1.8722    1.2474 H   0  0  0  0  0  0  0  0  0  0  0  0
    0.3604    0.3402    2.1641 H   0  0  0  0  0  0  0  0  0  0  0  0
    0.3548   -1.1649    1.2635 H   0  0  0  0  0  0  0  0  0  0  0  0
   -1.8777    0.1954    2.1623 H   0  0  0  0  0  0  0  0  0  0  0  0
    4.5641    0.5313    2.1210 H   0  0  0  0  0  0  0  0  0  0  0  0
    4.5774    1.6411    0.7415 H   0  0  0  0  0  0  0  0  0  0  0  0
    2.4924   -1.5653   -0.6589 H   0  0  0  0  0  0  0  0  0  0  0  0
    3.3467   -0.2257   -1.4727 H   0  0  0  0  0  0  0  0  0  0  0  0
    5.8472    0.2398   -0.5356 H   0  0  0  0  0  0  0  0  0  0  0  0
    6.1904   -0.6729    0.9498 H   0  0  0  0  0  0  0  0  0  0  0  0
    0.6379    3.1156   -1.4803 H   0  0  0  0  0  0  0  0  0  0  0  0
   -3.6765    1.8921    0.7121 H   0  0  0  0  0  0  0  0  0  0  0  0
    6.1174   -2.5765   -0.9953 H   0  0  0  0  0  0  0  0  0  0  0  0
    5.3466   -1.4848   -2.1650 H   0  0  0  0  0  0  0  0  0  0  0  0
    4.5172   -2.9577   -1.6229 H   0  0  0  0  0  0  0  0  0  0  0  0
   -1.3517    4.5718   -1.7240 H   0  0  0  0  0  0  0  0  0  0  0  0
   -3.4938    3.9673   -0.6374 H   0  0  0  0  0  0  0  0  0  0  0  0
   -4.0662   -0.7536    1.6773 H   0  0  0  0  0  0  0  0  0  0  0  0
   -0.6718   -1.6957   -0.8310 H   0  0  0  0  0  0  0  0  0  0  0  0
   -5.3176   -2.6119    0.6400 H   0  0  0  0  0  0  0  0  0  0  0  0
   -1.9296   -3.5278   -1.8390 H   0  0  0  0  0  0  0  0  0  0  0  0
   -4.2551   -4.0026   -1.1183 H   0  0  0  0  0  0  0  0  0  0  0  0
  1  8  1  0  0  0  0
  1 11  1  0  0  0  0
  1 15  1  0  0  0  0
  2  4  1  0  0  0  0
  2  5  1  0  0  0  0
  2  9  1  0  0  0  0
  2 23  1  0  0  0  0
  3  4  1  0  0  0  0
  3  7  1  0  0  0  0
  3  8  1  0  0  0  0
  3 24  1  0  0  0  0
  4 25  1  0  0  0  0
  4 26  1  0  0  0  0
  5  6  1  0  0  0  0
  5 27  1  0  0  0  0
  5 28  1  0  0  0  0
  6 10  1  0  0  0  0
  6 12  1  0  0  0  0
  6 29  1  0  0  0  0
  7 11  1  0  0  0  0
  7 30  1  0  0  0  0
  7 31  1  0  0  0  0
  8 32  1  0  0  0  0
  8 33  1  0  0  0  0
  9 10  1  0  0  0  0
  9 13  2  0  0  0  0
 10 14  2  0  0  0  0
 11 34  1  0  0  0  0
 11 35  1  0  0  0  0
 12 18  2  0  0  0  0
 12 19  1  0  0  0  0
 13 16  1  0  0  0  0
 13 36  1  0  0  0  0
 14 17  1  0  0  0  0
 14 37  1  0  0  0  0
 15 38  1  0  0  0  0
 15 39  1  0  0  0  0
 15 40  1  0  0  0  0
 16 17  2  0  0  0  0
 16 41  1  0  0  0  0
 17 42  1  0  0  0  0
 18 20  1  0  0  0  0
 18 43  1  0  0  0  0
 19 21  2  0  0  0  0
 19 44  1  0  0  0  0
 20 22  2  0  0  0  0
 20 45  1  0  0  0  0
 21 22  1  0  0  0  0
 21 46  1  0  0  0  0
 22 47  1  0  0  0  0
M  END
> <PUBCHEM_COMPOUND_CID>
214359

> <PUBCHEM_CONFORMER_RMSD>
0.8

> <PUBCHEM_CONFORMER_DIVERSEORDER>
3
28
29
27
25
10
9
5
30
21
7
24
22
26
19
23
1
20
8
18
11
13
17
16
4
15
6
14
2
12

> <PUBCHEM_MMFF94_PARTIAL_CHARGES>
27
1 -0.81
10 -0.14
11 0.27
12 -0.14
13 -0.15
14 -0.15
15 0.27
16 -0.15
17 -0.15
18 -0.15
19 -0.15
2 0.14
20 -0.15
21 -0.15
22 -0.15
36 0.15
37 0.15
41 0.15
42 0.15
43 0.15
44 0.15
45 0.15
46 0.15
47 0.15
6 0.29
8 0.27
9 -0.14

> <PUBCHEM_EFFECTIVE_ROTOR_COUNT>
4.6

> <PUBCHEM_PHARMACOPHORE_FEATURES>
5
1 1 cation
5 1 3 7 8 11 rings
5 2 5 6 9 10 rings
6 12 18 19 20 21 22 rings
6 9 10 13 14 16 17 rings

> <PUBCHEM_HEAVY_ATOM_COUNT>
22

> <PUBCHEM_ATOM_DEF_STEREO_COUNT>
0

> <PUBCHEM_ATOM_UDEF_STEREO_COUNT>
3

> <PUBCHEM_BOND_DEF_STEREO_COUNT>
0

> <PUBCHEM_BOND_UDEF_STEREO_COUNT>
0

> <PUBCHEM_ISOTOPIC_ATOM_COUNT>
0

> <PUBCHEM_COMPONENT_COUNT>
1

> <PUBCHEM_CACTVS_TAUTO_COUNT>
1

> <PUBCHEM_CONFORMER_ID>
0003455700000003

> <PUBCHEM_MMFF94_ENERGY>
64.0802

> <PUBCHEM_FEATURE_SELFOVERLAP>
25.454

> <PUBCHEM_SHAPE_FINGERPRINT>
10254770 206 16892568153464148346
10391435 84 17911797974150962182
107951 10 17534927181140574674
11045515 52 18042958955753590045
11101153 10 18116715304448454636
11265709 11 18263924513205378673
11552529 35 18202845456934745480
116883 192 18337669823005312045
11809386 21 18261108522657506314
12403259 327 16199318761783745403
12422481 6 18199212649411249387
12553582 1 18192160514315140730
12623949 98 17845106232129508646
12643181 29 17981049618482296662
12788726 201 18261103102075891282
13004483 165 18267010829354142391
13009979 54 17912943948069281827
13257819 37 17972032540364477053
13583140 156 17917980686282058616
13690498 29 18338815428992560878
13757389 114 18045796593428583828
13911987 19 17032770711926115564
14508225 48 18262790882426365045
14910302 57 18342454807937455802
15042514 8 18408610240816641689
15131766 46 14781275214090275270
15230672 131 17832152619851059918
16087824 20 18334852768139201333
17357779 13 18270098232398625383
17492 54 17825079577597473101
17539 30 18336252492820460317
1813 80 18264773331771120247
19141452 34 18343590641992767731
20602899 9 18056472846959673441
21065201 7 18336825287123416642
21344244 181 18127672860925176469
22393880 68 18338519613225842170
22620623 9 18336830797112860784
23175994 123 18042966665520845939
23402539 116 18335132141599758163
23419403 2 17559091363238618857
23557571 272 18410008845382225552
23559900 14 18197213651767816320
23598288 3 18042426675935113813
3057174 1 17324339836749970997
3298306 158 17690277110610132222
3729539 64 17332817049973000254
44062 13 18266180526814952606
46194498 28 17465637384930942903
513202 73 18263657194394078763
57262259 84 18335693962498909693
59755656 520 17983582905429470785
613672 6 18191578864159074266
621550 34 18056185015748044992
7164475 11 18336265738383485228
7399639 24 18056178410193851832
7970288 3 18263644141904434138
81228 2 18334291011205194865
84936 182 8717181609738395847
9709674 26 18270674273676271132

> <PUBCHEM_SHAPE_MULTIPOLES>
447.77
9.61
4.38
1.18
13.3
1.66
-0.04
-7.92
-0.2
-5.44
-2.17
0.14
-0.07
0.95

> <PUBCHEM_SHAPE_SELFOVERLAP>
971.798

> <PUBCHEM_SHAPE_VOLUME>
248.6

> <PUBCHEM_COORDINATE_TYPE>
2
5
10

$$$$
23199082
  -OEChem-12271619293D

 35 36  0     1  0  0  0  0  0999 V2000
    0.0336    0.5309    2.0346 O   0  0  0  0  0  0  0  0  0  0  0  0
   -2.0365   -0.1004    0.1443 N   0  0  0  0  0  0  0  0  0  0  0  0
   -1.6722   -1.5019   -0.0607 C   0  0  0  0  0  0  0  0  0  0  0  0
   -3.1973    0.1203   -0.7180 C   0  0  0  0  0  0  0  0  0  0  0  0
   -0.9403    0.8085   -0.1563 C   0  0  1  0  0  0  0  0  0  0  0  0
   -3.0210   -2.2058   -0.0731 C   0  0  0  0  0  0  0  0  0  0  0  0
   -4.0227   -1.1408   -0.5085 C   0  0  0  0  0  0  0  0  0  0  0  0
   -1.4086    2.2588    0.0323 C   0  0  0  0  0  0  0  0  0  0  0  0
    0.1817    0.4566    0.8156 C   0  0  0  0  0  0  0  0  0  0  0  0
   -0.2857    3.2629   -0.1992 C   0  0  0  0  0  0  0  0  0  0  0  0
    1.4961    0.0065    0.2818 C   0  0  0  0  0  0  0  0  0  0  0  0
    1.9402    0.4674   -0.9576 C   0  0  0  0  0  0  0  0  0  0  0  0
    2.2842   -0.8757    1.0210 C   0  0  0  0  0  0  0  0  0  0  0  0
    3.1722    0.0459   -1.4579 C   0  0  0  0  0  0  0  0  0  0  0  0
    3.5162   -1.2971    0.5206 C   0  0  0  0  0  0  0  0  0  0  0  0
    3.9602   -0.8362   -0.7188 C   0  0  0  0  0  0  0  0  0  0  0  0
   -1.1679   -1.6581   -1.0233 H   0  0  0  0  0  0  0  0  0  0  0  0
   -1.0394   -1.9051    0.7362 H   0  0  0  0  0  0  0  0  0  0  0  0
   -3.7844    0.9990   -0.4343 H   0  0  0  0  0  0  0  0  0  0  0  0
   -2.9152    0.2058   -1.7754 H   0  0  0  0  0  0  0  0  0  0  0  0
   -0.6299    0.6689   -1.1962 H   0  0  0  0  0  0  0  0  0  0  0  0
   -3.2798   -2.5701    0.9281 H   0  0  0  0  0  0  0  0  0  0  0  0
   -3.0203   -3.0638   -0.7529 H   0  0  0  0  0  0  0  0  0  0  0  0
   -4.7708   -0.9921    0.2792 H   0  0  0  0  0  0  0  0  0  0  0  0
   -4.5507   -1.4310   -1.4226 H   0  0  0  0  0  0  0  0  0  0  0  0
   -2.2104    2.5111   -0.6704 H   0  0  0  0  0  0  0  0  0  0  0  0
   -1.8044    2.4089    1.0449 H   0  0  0  0  0  0  0  0  0  0  0  0
    0.1142    3.1789   -1.2141 H   0  0  0  0  0  0  0  0  0  0  0  0
   -0.6678    4.2818   -0.0770 H   0  0  0  0  0  0  0  0  0  0  0  0
    0.5334    3.1322    0.5139 H   0  0  0  0  0  0  0  0  0  0  0  0
    1.3735    1.1738   -1.5538 H   0  0  0  0  0  0  0  0  0  0  0  0
    1.9525   -1.2494    1.9861 H   0  0  0  0  0  0  0  0  0  0  0  0
    3.5212    0.4092   -2.4202 H   0  0  0  0  0  0  0  0  0  0  0  0
    4.1296   -1.9848    1.0955 H   0  0  0  0  0  0  0  0  0  0  0  0
    4.9199   -1.1634   -1.1078 H   0  0  0  0  0  0  0  0  0  0  0  0
  1  9  2  0  0  0  0
  2  3  1  0  0  0  0
  2  4  1  0  0  0  0
  2  5  1  0  0  0  0
  3  6  1  0  0  0  0
  3 17  1  0  0  0  0
  3 18  1  0  0  0  0
  4  7  1  0  0  0  0
  4 19  1  0  0  0  0
  4 20  1  0  0  0  0
  5  8  1  0  0  0  0
  5  9  1  0  0  0  0
  5 21  1  0  0  0  0
  6  7  1  0  0  0  0
  6 22  1  0  0  0  0
  6 23  1  0  0  0  0
  7 24  1  0  0  0  0
  7 25  1  0  0  0  0
  8 10  1  0  0  0  0
  8 26  1  0  0  0  0
  8 27  1  0  0  0  0
  9 11  1  0  0  0  0
 10 28  1  0  0  0  0
 10 29  1  0  0  0  0
 10 30  1  0  0  0  0
 11 12  2  0  0  0  0
 11 13  1  0  0  0  0
 12 14  1  0  0  0  0
 12 31  1  0  0  0  0
 13 15  2  0  0  0  0
 13 32  1  0  0  0  0
 14 16  2  0  0  0  0
 14 33  1  0  0  0  0
 15 16  1  0  0  0  0
 15 34  1  0  0  0  0
 16 35  1  0  0  0  0
M  END
> <PUBCHEM_COMPOUND_CID>
23199082

> <PUBCHEM_CONFORMER_RMSD>
0.6

> <PUBCHEM_CONFORMER_DIVERSEORDER>
1
50
52
33
49
16
40
15
9
30
48
47
45
11
24
25
23
31
14
51
17
13
27
35
28
46
37
38
44
34
42
29
26
41
10
36
43
19
3
5
32
39
22
20
6
18
21
4
12
7
2
8

> <PUBCHEM_MMFF94_PARTIAL_CHARGES>
17
1 -0.57
11 0.09
12 -0.15
13 -0.15
14 -0.15
15 -0.15
16 -0.15
2 -0.81
3 0.27
31 0.15
32 0.15
33 0.15
34 0.15
35 0.15
4 0.27
5 0.33
9 0.42

> <PUBCHEM_EFFECTIVE_ROTOR_COUNT>
5

> <PUBCHEM_PHARMACOPHORE_FEATURES>
5
1 1 acceptor
1 10 hydrophobe
1 2 cation
5 2 3 4 6 7 rings
6 11 12 13 14 15 16 rings

> <PUBCHEM_HEAVY_ATOM_COUNT>
16

> <PUBCHEM_ATOM_DEF_STEREO_COUNT>
0

> <PUBCHEM_ATOM_UDEF_STEREO_COUNT>
1

> <PUBCHEM_BOND_DEF_STEREO_COUNT>
0

> <PUBCHEM_BOND_UDEF_STEREO_COUNT>
0

> <PUBCHEM_ISOTOPIC_ATOM_COUNT>
0

> <PUBCHEM_COMPONENT_COUNT>
1

> <PUBCHEM_CACTVS_TAUTO_COUNT>
2

> <PUBCHEM_CONFORMER_ID>
0161FD6A00000001

> <PUBCHEM_MMFF94_ENERGY>
34.7553

> <PUBCHEM_FEATURE_SELFOVERLAP>
25.372

> <PUBCHEM_SHAPE_FINGERPRINT>
10465860 71 18410579530223242933
10618630 7 18202563998858510807
11471102 22 15913324693603800098
11578080 2 17388781328575444988
12202030 40 17273711870513646782
12251169 10 11671780459873411022
12400797 292 18114468979973519852
12553582 1 18409732880500395763
12892183 10 13326861045204463903
13296908 3 18342170124282584419
13583140 156 17628602330002474770
15775835 57 11242245281541567607
15848700 24 18130213943734111263
15852999 172 17625816063856763516
15906896 17 17972336017999663457
16752209 62 18264190436427283365
16945 1 18339641135684745289
17804303 29 18131070463519034331
17844478 74 15913332351635834642
18186145 218 15574711400111003870
18219364 16 14924529471571197636
192875 21 16950274097138200908
19862831 5 17603583023609195327
200 152 18040718065162137070
20281407 28 18273495684452415475
20361792 2 18270959145671263775
20645477 70 17834666476999001263
20671657 53 18340490057545960437
20711985 344 18271247110322680481
20871999 31 18334290972745187135
21061003 4 16702297945000517762
21452121 199 18056188313992244725
21524375 3 17466231824999391904
21634736 98 18261960738325308574
228727 97 17894632530410564361
23382010 3 16588866922473590675
23402539 116 18410288073568521596
23402655 69 17458625575556823470
23419403 2 17559363968791430088
23557571 272 18271517629096496400
23559900 14 18270106921597499962
23598291 2 17607520224867836194
25 1 15140957327239182754
2748010 2 18196634388842880457
3082319 5 18040436585695390806
603831 33 18187368705703447374
6992083 37 17392750376561936192
7364860 26 17908983549866692613
7615 1 17896037651037589352
77492 1 17822292319113888496
81228 2 18270967838685343833
84936 31 17415553487217900160

> <PUBCHEM_SHAPE_MULTIPOLES>
318.42
6.67
2.46
1.21
0.76
1.85
0.22
-4.31
-1.98
-1.58
-0.02
0.72
0.04
-0.39

> <PUBCHEM_SHAPE_SELFOVERLAP>
661.301

> <PUBCHEM_SHAPE_VOLUME>
183.3

> <PUBCHEM_COORDINATE_TYPE>
2
5
10

$$$$
3080846
  -OEChem-12271619513D

 39 40  0     1  0  0  0  0  0999 V2000
   -1.0695    2.3588    0.3435 O   0  0  0  0  0  0  0  0  0  0  0  0
   -0.4296    1.5880   -1.7304 O   0  0  0  0  0  0  0  0  0  0  0  0
   -0.4876   -2.1533    0.6672 N   0  0  0  0  0  0  0  0  0  0  0  0
   -0.8779   -1.0086   -0.1654 C   0  0  1  0  0  0  0  0  0  0  0  0
   -2.3831   -0.7343   -0.0426 C   0  0  0  0  0  0  0  0  0  0  0  0
   -0.0735    0.2175    0.2624 C   0  0  1  0  0  0  0  0  0  0  0  0
   -3.2015   -1.9754   -0.3882 C   0  0  0  0  0  0  0  0  0  0  0  0
   -2.7246   -3.1746    0.4239 C   0  0  0  0  0  0  0  0  0  0  0  0
   -1.2155   -3.3662    0.2932 C   0  0  0  0  0  0  0  0  0  0  0  0
    1.4275   -0.0039    0.1499 C   0  0  0  0  0  0  0  0  0  0  0  0
   -0.5235    1.4478   -0.5178 C   0  0  0  0  0  0  0  0  0  0  0  0
    1.9116   -0.7856   -0.8794 C   0  0  0  0  0  0  0  0  0  0  0  0
    2.2606    0.5840    1.0801 C   0  0  0  0  0  0  0  0  0  0  0  0
    3.2878   -0.9885   -0.9828 C   0  0  0  0  0  0  0  0  0  0  0  0
    3.6368    0.3812    0.9766 C   0  0  0  0  0  0  0  0  0  0  0  0
    4.1503   -0.4050   -0.0549 C   0  0  0  0  0  0  0  0  0  0  0  0
   -1.5603    3.5614   -0.2579 C   0  0  0  0  0  0  0  0  0  0  0  0
   -2.1279    4.4569    0.8226 C   0  0  0  0  0  0  0  0  0  0  0  0
   -0.6985   -1.2447   -1.2214 H   0  0  0  0  0  0  0  0  0  0  0  0
   -2.6960    0.0736   -0.7136 H   0  0  0  0  0  0  0  0  0  0  0  0
   -2.6292   -0.4148    0.9788 H   0  0  0  0  0  0  0  0  0  0  0  0
   -0.2957    0.4028    1.3252 H   0  0  0  0  0  0  0  0  0  0  0  0
   -3.1008   -2.1945   -1.4583 H   0  0  0  0  0  0  0  0  0  0  0  0
   -4.2642   -1.7906   -0.1961 H   0  0  0  0  0  0  0  0  0  0  0  0
   -2.9876   -3.0287    1.4794 H   0  0  0  0  0  0  0  0  0  0  0  0
   -3.2437   -4.0791    0.0876 H   0  0  0  0  0  0  0  0  0  0  0  0
   -0.6793   -1.9390    1.6462 H   0  0  0  0  0  0  0  0  0  0  0  0
   -0.8937   -4.1875    0.9426 H   0  0  0  0  0  0  0  0  0  0  0  0
   -0.9542   -3.6559   -0.7318 H   0  0  0  0  0  0  0  0  0  0  0  0
    1.2871   -1.2314   -1.6436 H   0  0  0  0  0  0  0  0  0  0  0  0
    1.8700    1.1998    1.8846 H   0  0  0  0  0  0  0  0  0  0  0  0
    3.6890   -1.5941   -1.7902 H   0  0  0  0  0  0  0  0  0  0  0  0
    4.3087    0.8364    1.6983 H   0  0  0  0  0  0  0  0  0  0  0  0
    5.2220   -0.5611   -0.1366 H   0  0  0  0  0  0  0  0  0  0  0  0
   -0.7391    4.0744   -0.7707 H   0  0  0  0  0  0  0  0  0  0  0  0
   -2.3438    3.3132   -0.9824 H   0  0  0  0  0  0  0  0  0  0  0  0
   -2.5132    5.3876    0.3969 H   0  0  0  0  0  0  0  0  0  0  0  0
   -2.9383    3.9500    1.3567 H   0  0  0  0  0  0  0  0  0  0  0  0
   -1.3603    4.6987    1.5652 H   0  0  0  0  0  0  0  0  0  0  0  0
  1 11  1  0  0  0  0
  1 17  1  0  0  0  0
  2 11  2  0  0  0  0
  3  4  1  0  0  0  0
  3  9  1  0  0  0  0
  3 27  1  0  0  0  0
  4  5  1  0  0  0  0
  4  6  1  0  0  0  0
  4 19  1  0  0  0  0
  5  7  1  0  0  0  0
  5 20  1  0  0  0  0
  5 21  1  0  0  0  0
  6 10  1  0  0  0  0
  6 11  1  0  0  0  0
  6 22  1  0  0  0  0
  7  8  1  0  0  0  0
  7 23  1  0  0  0  0
  7 24  1  0  0  0  0
  8  9  1  0  0  0  0
  8 25  1  0  0  0  0
  8 26  1  0  0  0  0
  9 28  1  0  0  0  0
  9 29  1  0  0  0  0
 10 12  2  0  0  0  0
 10 13  1  0  0  0  0
 12 14  1  0  0  0  0
 12 30  1  0  0  0  0
 13 15  2  0  0  0  0
 13 31  1  0  0  0  0
 14 16  2  0  0  0  0
 14 32  1  0  0  0  0
 15 16  1  0  0  0  0
 15 33  1  0  0  0  0
 16 34  1  0  0  0  0
 17 18  1  0  0  0  0
 17 35  1  0  0  0  0
 17 36  1  0  0  0  0
 18 37  1  0  0  0  0
 18 38  1  0  0  0  0
 18 39  1  0  0  0  0
M  END
> <PUBCHEM_COMPOUND_CID>
3080846

> <PUBCHEM_CONFORMER_RMSD>
0.8

> <PUBCHEM_CONFORMER_DIVERSEORDER>
1
24
26
41
12
57
55
23
34
59
52
53
17
4
46
14
48
44
33
9
28
36
16
40
20
37
25
50
30
29
49
56
51
38
11
10
47
32
31
45
8
35
7
2
22
15
18
43
27
42
21
6
13
39
5
19
54
58
3
60

> <PUBCHEM_MMFF94_PARTIAL_CHARGES>
20
1 -0.43
10 -0.14
11 0.66
12 -0.15
13 -0.15
14 -0.15
15 -0.15
16 -0.15
17 0.28
2 -0.57
27 0.36
3 -0.9
30 0.15
31 0.15
32 0.15
33 0.15
34 0.15
4 0.27
6 0.2
9 0.27

> <PUBCHEM_EFFECTIVE_ROTOR_COUNT>
6.2

> <PUBCHEM_PHARMACOPHORE_FEATURES>
5
1 2 acceptor
1 3 cation
1 3 donor
6 10 12 13 14 15 16 rings
6 3 4 5 7 8 9 rings

> <PUBCHEM_HEAVY_ATOM_COUNT>
18

> <PUBCHEM_ATOM_DEF_STEREO_COUNT>
0

> <PUBCHEM_ATOM_UDEF_STEREO_COUNT>
2

> <PUBCHEM_BOND_DEF_STEREO_COUNT>
0

> <PUBCHEM_BOND_UDEF_STEREO_COUNT>
0

> <PUBCHEM_ISOTOPIC_ATOM_COUNT>
0

> <PUBCHEM_COMPONENT_COUNT>
1

> <PUBCHEM_CACTVS_TAUTO_COUNT>
1

> <PUBCHEM_CONFORMER_ID>
002F028E00000001

> <PUBCHEM_MMFF94_ENERGY>
29.8847

> <PUBCHEM_FEATURE_SELFOVERLAP>
25.371

> <PUBCHEM_SHAPE_FINGERPRINT>
10165383 225 17688892838440372028
11646440 116 18412266147465455809
116883 192 18411985788278175126
12173636 292 18194680371823240356
12532896 13 18052535478376877188
12553582 1 18193573369651063679
12730499 353 17547021723669660113
12788726 201 18335140920866150698
13083527 12 16971090351464596098
13134695 92 18051683649176172407
13140716 1 18264491856715347106
13294875 104 17550368654132670344
136203 1 18410573972409247209
13681431 1 17829337126172746332
13955234 65 17256818213671784827
14178342 30 18264475222992500186
14955137 171 17546735214900918912
15490181 7 18051418361809789803
16945 1 18410017636810930478
18186145 218 10954274347437883230
18785283 64 17254289920594649697
19049666 15 18200029534916133214
19591789 44 17906459826972559427
20510252 161 18412257328937741760
20600515 1 18044356430442048716
20711985 344 18408603651904202042
21029758 11 18266448996408846255
21041028 32 18192445266968927539
21524375 3 17695335989158027540
23402539 116 18339066194330839918
23419403 2 17629175359880032345
23557571 272 18337104678961945044
23558518 356 18268703918378782908
23559900 14 18410005551400830486
25 1 17625255317401296132
2748010 2 18196646521899060558
3084891 72 18409439272441787247
3091708 16 9348049500182202489
350125 39 17975696082594867115
4175511 71 18121513594112368067
458136 41 17545333972956571953
532947 4 17259913343135819508
5902787 121 17899970831304916802
59755656 520 18121779418038471588
6442390 28 18051141297833570657
7364860 26 17473265851958563083
81228 2 18333735718982808888
84936 182 17262150333696358144

> <PUBCHEM_SHAPE_MULTIPOLES>
353.71
5.61
4.85
1.06
4.59
5.07
-0.16
-2.85
0.37
-6.58
0.88
0.4
0.24
0.38

> <PUBCHEM_SHAPE_SELFOVERLAP>
729.013

> <PUBCHEM_SHAPE_VOLUME>
201.7

> <PUBCHEM_COORDINATE_TYPE>
2
5
10

$$$$
31738
  -OEChem-12271619473D

 30 31  0     0  0  0  0  0  0999 V2000
   -3.8889    0.5999   -0.2787 N   0  0  0  0  0  0  0  0  0  0  0  0
   -1.1572   -0.4088    0.0967 C   0  0  0  0  0  0  0  0  0  0  0  0
   -2.3966   -1.2660    0.3828 C   0  0  0  0  0  0  0  0  0  0  0  0
   -1.5089    1.0788    0.2255 C   0  0  0  0  0  0  0  0  0  0  0  0
   -0.0053   -0.7825    1.0253 C   0  0  0  0  0  0  0  0  0  0  0  0
   -3.5850   -0.8201   -0.4686 C   0  0  0  0  0  0  0  0  0  0  0  0
   -2.7330    1.4323   -0.6190 C   0  0  0  0  0  0  0  0  0  0  0  0
    1.3232   -0.3604    0.4597 C   0  0  0  0  0  0  0  0  0  0  0  0
    2.0302   -1.2359   -0.3537 C   0  0  0  0  0  0  0  0  0  0  0  0
    1.8258    0.8990    0.7585 C   0  0  0  0  0  0  0  0  0  0  0  0
    3.2621   -0.8448   -0.8782 C   0  0  0  0  0  0  0  0  0  0  0  0
    3.0577    1.2901    0.2340 C   0  0  0  0  0  0  0  0  0  0  0  0
    3.7759    0.4183   -0.5844 C   0  0  0  0  0  0  0  0  0  0  0  0
   -0.8647   -0.6010   -0.9457 H   0  0  0  0  0  0  0  0  0  0  0  0
   -2.6625   -1.1951    1.4457 H   0  0  0  0  0  0  0  0  0  0  0  0
   -2.1795   -2.3212    0.1779 H   0  0  0  0  0  0  0  0  0  0  0  0
   -0.6761    1.7073   -0.1058 H   0  0  0  0  0  0  0  0  0  0  0  0
   -1.7075    1.3316    1.2752 H   0  0  0  0  0  0  0  0  0  0  0  0
    0.0172   -1.8698    1.1799 H   0  0  0  0  0  0  0  0  0  0  0  0
   -0.1456   -0.3535    2.0262 H   0  0  0  0  0  0  0  0  0  0  0  0
   -3.3895   -1.0244   -1.5285 H   0  0  0  0  0  0  0  0  0  0  0  0
   -4.4656   -1.4084   -0.1882 H   0  0  0  0  0  0  0  0  0  0  0  0
   -2.9939    2.4825   -0.4477 H   0  0  0  0  0  0  0  0  0  0  0  0
   -2.4987    1.3319   -1.6860 H   0  0  0  0  0  0  0  0  0  0  0  0
   -4.6758    0.8579   -0.8736 H   0  0  0  0  0  0  0  0  0  0  0  0
    1.6384   -2.2209   -0.5911 H   0  0  0  0  0  0  0  0  0  0  0  0
    1.2813    1.5840    1.4021 H   0  0  0  0  0  0  0  0  0  0  0  0
    3.8210   -1.5234   -1.5158 H   0  0  0  0  0  0  0  0  0  0  0  0
    3.4588    2.2728    0.4645 H   0  0  0  0  0  0  0  0  0  0  0  0
    4.7352    0.7227   -0.9925 H   0  0  0  0  0  0  0  0  0  0  0  0
  1  6  1  0  0  0  0
  1  7  1  0  0  0  0
  1 25  1  0  0  0  0
  2  3  1  0  0  0  0
  2  4  1  0  0  0  0
  2  5  1  0  0  0  0
  2 14  1  0  0  0  0
  3  6  1  0  0  0  0
  3 15  1  0  0  0  0
  3 16  1  0  0  0  0
  4  7  1  0  0  0  0
  4 17  1  0  0  0  0
  4 18  1  0  0  0  0
  5  8  1  0  0  0  0
  5 19  1  0  0  0  0
  5 20  1  0  0  0  0
  6 21  1  0  0  0  0
  6 22  1  0  0  0  0
  7 23  1  0  0  0  0
  7 24  1  0  0  0  0
  8  9  2  0  0  0  0
  8 10  1  0  0  0  0
  9 11  1  0  0  0  0
  9 26  1  0  0  0  0
 10 12  2  0  0  0  0
 10 27  1  0  0  0  0
 11 13  2  0  0  0  0
 11 28  1  0  0  0  0
 12 13  1  0  0  0  0
 12 29  1  0  0  0  0
 13 30  1  0  0  0  0
M  END
> <PUBCHEM_COMPOUND_CID>
31738

> <PUBCHEM_CONFORMER_RMSD>
0.6

> <PUBCHEM_CONFORMER_DIVERSEORDER>
2
5
1
8
3
9
4
6
7

> <PUBCHEM_MMFF94_PARTIAL_CHARGES>
16
1 -0.9
10 -0.15
11 -0.15
12 -0.15
13 -0.15
25 0.36
26 0.15
27 0.15
28 0.15
29 0.15
30 0.15
5 0.14
6 0.27
7 0.27
8 -0.14
9 -0.15

> <PUBCHEM_EFFECTIVE_ROTOR_COUNT>
3.2

> <PUBCHEM_PHARMACOPHORE_FEATURES>
4
1 1 cation
1 1 donor
6 1 2 3 4 6 7 rings
6 8 9 10 11 12 13 rings

> <PUBCHEM_HEAVY_ATOM_COUNT>
13

> <PUBCHEM_ATOM_DEF_STEREO_COUNT>
0

> <PUBCHEM_ATOM_UDEF_STEREO_COUNT>
0

> <PUBCHEM_BOND_DEF_STEREO_COUNT>
0

> <PUBCHEM_BOND_UDEF_STEREO_COUNT>
0

> <PUBCHEM_ISOTOPIC_ATOM_COUNT>
0

> <PUBCHEM_COMPONENT_COUNT>
1

> <PUBCHEM_CACTVS_TAUTO_COUNT>
1

> <PUBCHEM_CONFORMER_ID>
00007BFA00000002

> <PUBCHEM_MMFF94_ENERGY>
19.3132

> <PUBCHEM_FEATURE_SELFOVERLAP>
20.297

> <PUBCHEM_SHAPE_FINGERPRINT>
10498660 4 18040988510657908149
10608611 8 18410853282669757872
10799339 124 8502657008302081757
11715629 250 18334005086373008541
12251169 10 8502366720226565874
12897270 3 18341613728322539442
12932764 1 18334859389801787459
13296908 3 18272369788961657987
13705890 14 17917994971179501358
13764800 53 17313398824185502033
14250199 8 18340209690565635317
15219456 202 18342458161826723226
15775835 57 17822008675025680033
18186145 218 18410014303673423385
200 152 17489588960892283730
20201158 50 18343304760195033674
20279233 1 18343020012463799586
20281407 28 11600015357382066098
20361792 2 15051728685795626625
20645477 70 17988648467109463486
20671657 53 17632306631567261072
20871999 31 18341040917799751855
22169311 14 8430322337286559383
22485316 2 12751243588275449910
22802520 49 18340775853259666944
23402539 116 18261946436210826198
23402655 69 18343022164100145972
23557571 272 18264781015604925223
23559900 14 18341047428938413354
2748010 2 17474105882978811608
4028521 119 18187639185537480925
57812782 119 18342457053904482894
7364860 26 18116985598923472730
8030462 33 17894346661677028755
93112 12 18342176652442885934

> <PUBCHEM_SHAPE_MULTIPOLES>
262.55
7.24
1.52
0.92
1.04
0.15
-0.04
0.68
1.96
0.21
0.04
-0.22
-0.05
0.55

> <PUBCHEM_SHAPE_SELFOVERLAP>
541.393

> <PUBCHEM_SHAPE_VOLUME>
147

> <PUBCHEM_COORDINATE_TYPE>
2
5
10

$$$$
4020
  -OEChem-12271620093D

 33 36  0     1  0  0  0  0  0999 V2000
    5.5137   -0.4561   -1.0735 Cl  0  0  0  0  0  0  0  0  0  0  0  0
   -0.2480    0.2613    2.3019 O   0  0  0  0  0  0  0  0  0  0  0  0
   -0.7998    1.3748    0.2807 N   0  0  0  0  0  0  0  0  0  0  0  0
   -2.6750    2.0860   -0.8240 N   0  0  0  0  0  0  0  0  0  0  0  0
   -0.1537    0.2229    0.8819 C   0  0  2  0  0  0  0  0  0  0  0  0
   -1.1105   -0.8704    0.3968 C   0  0  0  0  0  0  0  0  0  0  0  0
   -1.9694    1.1011   -0.3546 C   0  0  0  0  0  0  0  0  0  0  0  0
   -0.6280    2.7782    0.4269 C   0  0  0  0  0  0  0  0  0  0  0  0
   -2.1921   -0.3265   -0.3337 C   0  0  0  0  0  0  0  0  0  0  0  0
    1.2731    0.0534    0.3895 C   0  0  0  0  0  0  0  0  0  0  0  0
   -1.8113    3.2762   -0.4532 C   0  0  0  0  0  0  0  0  0  0  0  0
   -1.0450   -2.2372    0.6013 C   0  0  0  0  0  0  0  0  0  0  0  0
   -3.2068   -1.0875   -0.8696 C   0  0  0  0  0  0  0  0  0  0  0  0
    1.5463    0.0459   -0.9802 C   0  0  0  0  0  0  0  0  0  0  0  0
    2.3175   -0.0970    1.3049 C   0  0  0  0  0  0  0  0  0  0  0  0
   -2.0629   -3.0337    0.0629 C   0  0  0  0  0  0  0  0  0  0  0  0
   -3.1298   -2.4654   -0.6632 C   0  0  0  0  0  0  0  0  0  0  0  0
    2.8565   -0.1112   -1.4322 C   0  0  0  0  0  0  0  0  0  0  0  0
    3.6278   -0.2538    0.8528 C   0  0  0  0  0  0  0  0  0  0  0  0
    3.8974   -0.2610   -0.5157 C   0  0  0  0  0  0  0  0  0  0  0  0
    0.3336    3.1335    0.0461 H   0  0  0  0  0  0  0  0  0  0  0  0
   -0.7558    3.1000    1.4648 H   0  0  0  0  0  0  0  0  0  0  0  0
   -2.4161    4.0123    0.0862 H   0  0  0  0  0  0  0  0  0  0  0  0
   -1.4405    3.7372   -1.3755 H   0  0  0  0  0  0  0  0  0  0  0  0
   -0.2332   -2.6865    1.1627 H   0  0  0  0  0  0  0  0  0  0  0  0
   -4.0263   -0.6478   -1.4246 H   0  0  0  0  0  0  0  0  0  0  0  0
   -0.7868    1.0362    2.5329 H   0  0  0  0  0  0  0  0  0  0  0  0
    0.7525    0.1595   -1.7137 H   0  0  0  0  0  0  0  0  0  0  0  0
    2.1419   -0.0977    2.3767 H   0  0  0  0  0  0  0  0  0  0  0  0
   -2.0332   -4.1107    0.2086 H   0  0  0  0  0  0  0  0  0  0  0  0
   -3.9042   -3.1134   -1.0658 H   0  0  0  0  0  0  0  0  0  0  0  0
    3.0517   -0.1154   -2.5015 H   0  0  0  0  0  0  0  0  0  0  0  0
    4.4289   -0.3702    1.5783 H   0  0  0  0  0  0  0  0  0  0  0  0
  1 20  1  0  0  0  0
  2  5  1  0  0  0  0
  2 27  1  0  0  0  0
  3  5  1  0  0  0  0
  3  7  1  0  0  0  0
  3  8  1  0  0  0  0
  4  7  2  0  0  0  0
  4 11  1  0  0  0  0
  5  6  1  0  0  0  0
  5 10  1  0  0  0  0
  6  9  1  0  0  0  0
  6 12  2  0  0  0  0
  7  9  1  0  0  0  0
  8 11  1  0  0  0  0
  8 21  1  0  0  0  0
  8 22  1  0  0  0  0
  9 13  2  0  0  0  0
 10 14  2  0  0  0  0
 10 15  1  0  0  0  0
 11 23  1  0  0  0  0
 11 24  1  0  0  0  0
 12 16  1  0  0  0  0
 12 25  1  0  0  0  0
 13 17  1  0  0  0  0
 13 26  1  0  0  0  0
 14 18  1  0  0  0  0
 14 28  1  0  0  0  0
 15 19  2  0  0  0  0
 15 29  1  0  0  0  0
 16 17  2  0  0  0  0
 16 30  1  0  0  0  0
 17 31  1  0  0  0  0
 18 20  2  0  0  0  0
 18 32  1  0  0  0  0
 19 20  1  0  0  0  0
 19 33  1  0  0  0  0
M  END
> <PUBCHEM_COMPOUND_CID>
4020

> <PUBCHEM_CONFORMER_RMSD>
0.6

> <PUBCHEM_CONFORMER_DIVERSEORDER>
1
3
4
2

> <PUBCHEM_MMFF94_PARTIAL_CHARGES>
29
1 -0.18
10 -0.14
11 0.25
12 -0.15
13 -0.15
14 -0.15
15 -0.15
16 -0.15
17 -0.15
18 -0.15
19 -0.15
2 -0.68
20 0.18
25 0.15
26 0.15
27 0.4
28 0.15
29 0.15
3 -0.79
30 0.15
31 0.15
32 0.15
33 0.15
4 -0.7
5 0.94
6 -0.14
7 0.41
8 0.37
9 0.09

> <PUBCHEM_EFFECTIVE_ROTOR_COUNT>
1.6

> <PUBCHEM_PHARMACOPHORE_FEATURES>
7
1 2 acceptor
1 2 donor
3 3 4 7 cation
5 3 4 7 8 11 rings
5 3 5 6 7 9 rings
6 10 14 15 18 19 20 rings
6 6 9 12 13 16 17 rings

> <PUBCHEM_HEAVY_ATOM_COUNT>
20

> <PUBCHEM_ATOM_DEF_STEREO_COUNT>
0

> <PUBCHEM_ATOM_UDEF_STEREO_COUNT>
1

> <PUBCHEM_BOND_DEF_STEREO_COUNT>
0

> <PUBCHEM_BOND_UDEF_STEREO_COUNT>
0

> <PUBCHEM_ISOTOPIC_ATOM_COUNT>
0

> <PUBCHEM_COMPONENT_COUNT>
1

> <PUBCHEM_CACTVS_TAUTO_COUNT>
1

> <PUBCHEM_CONFORMER_ID>
00000FB400000001

> <PUBCHEM_MMFF94_ENERGY>
73.7204

> <PUBCHEM_FEATURE_SELFOVERLAP>
35.897

> <PUBCHEM_SHAPE_FINGERPRINT>
10764073 3 16900804714967433715
11578080 2 17845651589738669337
11640471 11 17677335996200717932
11833330 49 18335693987852228517
12173636 292 18193264204988560445
12236239 1 17603864477174243036
12363563 72 18197498630409842159
12500047 106 18266458716098957790
12553582 1 18336541737234909771
12714826 92 18201721768835989090
12788726 201 18333729121860626243
13009979 54 17751611330766664794
13583140 156 17916565580726398178
13681431 1 17908143535698947905
14790565 3 18338238168235177661
14817 1 16233148385138457889
15475509 8 18343020017428914055
15906896 17 18041573442116306609
16752209 62 18334562534636957835
16945 1 18408597067750738891
17357779 13 17986938821101688471
1813 80 18125456434156620287
18785283 64 16968867658923759921
20645476 183 18187647929716329469
20693207 138 17988926686896186376
20871999 31 18411696582455452717
21285901 2 18273498974882733167
21524375 3 17825669941382976521
21756936 100 17313968320022743620
22620623 9 18272925021006463933
23352939 185 18126859419367183105
23402539 116 18410008831922044414
23419403 2 17416667215287224425
23557571 272 18270669969992615656
23559900 14 18272081644660392082
2748010 2 17904461250136182315
298252 57 18044377123621244665
4921388 177 18271254832752746668
559249 180 18191302672778075378
5845 1 10811919606057635969
5895379 119 14208917851887895591
59755656 520 17842292375303934880
7364860 26 17474945910347709377
77492 1 17531515504123288672
81228 2 18412832403784066033
84936 31 17126198375132159585
9709674 26 18271250426396402302

> <PUBCHEM_SHAPE_MULTIPOLES>
397.63
7.02
3.05
1.36
9.84
1.11
0.35
-2.62
-2.88
-4.32
-0.26
0.66
-0.01
0.19

> <PUBCHEM_SHAPE_SELFOVERLAP>
884.084

> <PUBCHEM_SHAPE_VOLUME>
215.5

> <PUBCHEM_COORDINATE_TYPE>
2
5
10

$$$$
4065
  -OEChem-12271619523D

 38 38  0     0  0  0  0  0  0999 V2000
    0.4253    0.2470    0.0026 O   0  0  0  0  0  0  0  0  0  0  0  0
    1.4586    2.3042    0.0047 O   0  0  0  0  0  0  0  0  0  0  0  0
   -3.2674    0.5786   -0.0173 N   0  0  0  0  0  0  0  0  0  0  0  0
   -1.9968   -0.1578    0.0027 C   0  0  0  0  0  0  0  0  0  0  0  0
   -0.8527    0.8722    0.0035 C   0  0  0  0  0  0  0  0  0  0  0  0
   -1.9421   -1.0503   -1.2448 C   0  0  0  0  0  0  0  0  0  0  0  0
   -1.9436   -1.0345    1.2625 C   0  0  0  0  0  0  0  0  0  0  0  0
   -4.3897   -0.3429    0.0026 C   0  0  0  0  0  0  0  0  0  0  0  0
   -5.7079    0.4267   -0.0257 C   0  0  0  0  0  0  0  0  0  0  0  0
   -6.9006   -0.5159    0.0161 C   0  0  0  0  0  0  0  0  0  0  0  0
    1.4992    1.0836    0.0034 C   0  0  0  0  0  0  0  0  0  0  0  0
    2.7670    0.3109    0.0008 C   0  0  0  0  0  0  0  0  0  0  0  0
    3.9652    0.9953    0.0000 C   0  0  0  0  0  0  0  0  0  0  0  0
    2.7077   -1.0676   -0.0007 C   0  0  0  0  0  0  0  0  0  0  0  0
    5.1563    0.2693   -0.0027 C   0  0  0  0  0  0  0  0  0  0  0  0
    3.8986   -1.7936   -0.0033 C   0  0  0  0  0  0  0  0  0  0  0  0
    5.1230   -1.1251   -0.0044 C   0  0  0  0  0  0  0  0  0  0  0  0
   -0.9307    1.5132    0.8921 H   0  0  0  0  0  0  0  0  0  0  0  0
   -0.9278    1.5126   -0.8857 H   0  0  0  0  0  0  0  0  0  0  0  0
   -3.3177    1.1662   -0.8494 H   0  0  0  0  0  0  0  0  0  0  0  0
   -0.9317   -1.4550   -1.3808 H   0  0  0  0  0  0  0  0  0  0  0  0
   -2.1800   -0.4904   -2.1571 H   0  0  0  0  0  0  0  0  0  0  0  0
   -2.5983   -1.9253   -1.1915 H   0  0  0  0  0  0  0  0  0  0  0  0
   -2.1873   -0.4595    2.1637 H   0  0  0  0  0  0  0  0  0  0  0  0
   -2.6023   -1.9082    1.2183 H   0  0  0  0  0  0  0  0  0  0  0  0
   -0.9340   -1.4377    1.4080 H   0  0  0  0  0  0  0  0  0  0  0  0
   -4.4045   -1.0126   -0.8621 H   0  0  0  0  0  0  0  0  0  0  0  0
   -4.4102   -0.9495    0.9126 H   0  0  0  0  0  0  0  0  0  0  0  0
   -5.7637    1.1104    0.8302 H   0  0  0  0  0  0  0  0  0  0  0  0
   -5.7689    1.0390   -0.9338 H   0  0  0  0  0  0  0  0  0  0  0  0
   -6.8973   -1.1931   -0.8441 H   0  0  0  0  0  0  0  0  0  0  0  0
   -6.8936   -1.1195    0.9294 H   0  0  0  0  0  0  0  0  0  0  0  0
   -7.8345    0.0546   -0.0055 H   0  0  0  0  0  0  0  0  0  0  0  0
    4.0093    2.0802    0.0011 H   0  0  0  0  0  0  0  0  0  0  0  0
    1.7781   -1.6278    0.0000 H   0  0  0  0  0  0  0  0  0  0  0  0
    6.1097    0.7895   -0.0035 H   0  0  0  0  0  0  0  0  0  0  0  0
    3.8735   -2.8795   -0.0045 H   0  0  0  0  0  0  0  0  0  0  0  0
    6.0503   -1.6905   -0.0065 H   0  0  0  0  0  0  0  0  0  0  0  0
  1  5  1  0  0  0  0
  1 11  1  0  0  0  0
  2 11  2  0  0  0  0
  3  4  1  0  0  0  0
  3  8  1  0  0  0  0
  3 20  1  0  0  0  0
  4  5  1  0  0  0  0
  4  6  1  0  0  0  0
  4  7  1  0  0  0  0
  5 18  1  0  0  0  0
  5 19  1  0  0  0  0
  6 21  1  0  0  0  0
  6 22  1  0  0  0  0
  6 23  1  0  0  0  0
  7 24  1  0  0  0  0
  7 25  1  0  0  0  0
  7 26  1  0  0  0  0
  8  9  1  0  0  0  0
  8 27  1  0  0  0  0
  8 28  1  0  0  0  0
  9 10  1  0  0  0  0
  9 29  1  0  0  0  0
  9 30  1  0  0  0  0
 10 31  1  0  0  0  0
 10 32  1  0  0  0  0
 10 33  1  0  0  0  0
 11 12  1  0  0  0  0
 12 13  2  0  0  0  0
 12 14  1  0  0  0  0
 13 15  1  0  0  0  0
 13 34  1  0  0  0  0
 14 16  2  0  0  0  0
 14 35  1  0  0  0  0
 15 17  2  0  0  0  0
 15 36  1  0  0  0  0
 16 17  1  0  0  0  0
 16 37  1  0  0  0  0
 17 38  1  0  0  0  0
M  END
> <PUBCHEM_COMPOUND_CID>
4065

> <PUBCHEM_CONFORMER_RMSD>
0.8

> <PUBCHEM_CONFORMER_DIVERSEORDER>
4
68
48
53
41
11
61
64
33
58
50
42
9
56
27
45
60
69
39
57
15
63
47
51
46
18
59
30
14
65
62
13
40
67
8
29
16
49
32
52
35
12
25
6
36
21
3
55
66
44
17
20
2
26
5
24
1
38
22
54
43
31
37
34
70
23
10
19
28
7

> <PUBCHEM_MMFF94_PARTIAL_CHARGES>
19
1 -0.43
11 0.63
12 0.09
13 -0.15
14 -0.15
15 -0.15
16 -0.15
17 -0.15
2 -0.57
20 0.36
3 -0.9
34 0.15
35 0.15
36 0.15
37 0.15
38 0.15
4 0.27
5 0.28
8 0.27

> <PUBCHEM_EFFECTIVE_ROTOR_COUNT>
7

> <PUBCHEM_PHARMACOPHORE_FEATURES>
6
1 10 hydrophobe
1 2 acceptor
1 3 cation
1 3 donor
3 4 6 7 hydrophobe
6 12 13 14 15 16 17 rings

> <PUBCHEM_HEAVY_ATOM_COUNT>
17

> <PUBCHEM_ATOM_DEF_STEREO_COUNT>
0

> <PUBCHEM_ATOM_UDEF_STEREO_COUNT>
0

> <PUBCHEM_BOND_DEF_STEREO_COUNT>
0

> <PUBCHEM_BOND_UDEF_STEREO_COUNT>
0

> <PUBCHEM_ISOTOPIC_ATOM_COUNT>
0

> <PUBCHEM_COMPONENT_COUNT>
1

> <PUBCHEM_CACTVS_TAUTO_COUNT>
1

> <PUBCHEM_CONFORMER_ID>
00000FE100000004

> <PUBCHEM_MMFF94_ENERGY>
34.9992

> <PUBCHEM_FEATURE_SELFOVERLAP>
30.446

> <PUBCHEM_SHAPE_FINGERPRINT>
12107183 9 17551522037208316155
12236239 1 17989488524173477251
12592029 89 18130793330638553367
12815109 37 18342174466510143538
12916748 109 14995998835425277228
13533116 47 14333140628079654420
14115302 16 17604160293099613110
14251764 18 18273218608344836921
14252887 29 18060146405939989182
14386348 63 18113622287390456202
14573314 32 17749384828768781655
15242433 33 18413670227428689054
17834072 33 18342737437832912879
17834072 8 18186798080880682663
17834076 25 15985105210663873839
19141452 34 18411698820276007559
200 152 18202562873634919657
20279233 1 18187090554894235042
20645477 70 18411982417114320390
21267235 1 18341336600464766006
21279426 13 18117272550156993845
21285901 2 17895194346603389774
221357 26 18334008380982469053
2215653 11 18333448742501333487
22224240 67 17346588682756827278
22854114 59 10519984868089840146
23402539 116 17561078103899410621
23536379 177 18343584028017308401
23557571 272 16805318869193446700
23559900 14 18336543936110368433
26918003 58 18333169475127120802
2871803 45 18187647964608895770
300161 21 17917704729984570508
3004659 81 18113338583689650634
33824 294 18408602535819509426
3545911 37 18410856576819665252
4214541 1 18410855417321361861
42788 4 18410292510691776621
465052 167 18342744022049738255
59755656 215 17822004282076125879

> <PUBCHEM_SHAPE_MULTIPOLES>
333.13
14.34
1.56
0.79
13.52
0.18
-0.01
-2.65
0.02
-1.51
0
0.37
-0.21
0.01

> <PUBCHEM_SHAPE_SELFOVERLAP>
670.573

> <PUBCHEM_SHAPE_VOLUME>
196.7

> <PUBCHEM_COORDINATE_TYPE>
2
5
10

$$$$
414532
  -OEChem-12271619043D

 25 25  0     1  0  0  0  0  0999 V2000
   -1.8907   -1.5151    0.6881 O   0  0  0  0  0  0  0  0  0  0  0  0
   -3.2371    1.0712    0.8446 N   0  0  0  0  0  0  0  0  0  0  0  0
   -2.4447    0.6152   -0.2989 C   0  0  1  0  0  0  0  0  0  0  0  0
   -0.0132   -0.2364    0.1021 C   0  0  0  0  0  0  0  0  0  0  0  0
   -1.4479   -0.4563    0.1937 C   0  0  0  0  0  0  0  0  0  0  0  0
   -3.3682    0.0315   -1.3601 C   0  0  0  0  0  0  0  0  0  0  0  0
    0.5007    1.0579    0.1803 C   0  0  0  0  0  0  0  0  0  0  0  0
    0.8491   -1.3205   -0.0622 C   0  0  0  0  0  0  0  0  0  0  0  0
    2.7392    0.1843   -0.0701 C   0  0  0  0  0  0  0  0  0  0  0  0
    1.8769    1.2683    0.0941 C   0  0  0  0  0  0  0  0  0  0  0  0
    2.2253   -1.1101   -0.1483 C   0  0  0  0  0  0  0  0  0  0  0  0
    4.2106    0.4099   -0.1633 C   0  0  0  0  0  0  0  0  0  0  0  0
   -1.9282    1.4689   -0.7432 H   0  0  0  0  0  0  0  0  0  0  0  0
   -2.7876   -0.3300   -2.2161 H   0  0  0  0  0  0  0  0  0  0  0  0
   -3.9457   -0.8181   -0.9778 H   0  0  0  0  0  0  0  0  0  0  0  0
   -4.0750    0.7847   -1.7253 H   0  0  0  0  0  0  0  0  0  0  0  0
   -0.1359    1.9228    0.3404 H   0  0  0  0  0  0  0  0  0  0  0  0
    0.4673   -2.3359   -0.1292 H   0  0  0  0  0  0  0  0  0  0  0  0
    2.2664    2.2804    0.1650 H   0  0  0  0  0  0  0  0  0  0  0  0
    2.8870   -1.9627   -0.2755 H   0  0  0  0  0  0  0  0  0  0  0  0
   -2.6185    1.4351    1.5682 H   0  0  0  0  0  0  0  0  0  0  0  0
   -3.7385    0.2859    1.2578 H   0  0  0  0  0  0  0  0  0  0  0  0
    4.6895   -0.3553   -0.7835 H   0  0  0  0  0  0  0  0  0  0  0  0
    4.4332    1.3793   -0.6222 H   0  0  0  0  0  0  0  0  0  0  0  0
    4.6585    0.3830    0.8350 H   0  0  0  0  0  0  0  0  0  0  0  0
  1  5  2  0  0  0  0
  2  3  1  0  0  0  0
  2 21  1  0  0  0  0
  2 22  1  0  0  0  0
  3  5  1  0  0  0  0
  3  6  1  0  0  0  0
  3 13  1  0  0  0  0
  4  5  1  0  0  0  0
  4  7  2  0  0  0  0
  4  8  1  0  0  0  0
  6 14  1  0  0  0  0
  6 15  1  0  0  0  0
  6 16  1  0  0  0  0
  7 10  1  0  0  0  0
  7 17  1  0  0  0  0
  8 11  2  0  0  0  0
  8 18  1  0  0  0  0
  9 10  2  0  0  0  0
  9 11  1  0  0  0  0
  9 12  1  0  0  0  0
 10 19  1  0  0  0  0
 11 20  1  0  0  0  0
 12 23  1  0  0  0  0
 12 24  1  0  0  0  0
 12 25  1  0  0  0  0
M  END
> <PUBCHEM_COMPOUND_CID>
414532

> <PUBCHEM_CONFORMER_RMSD>
0.6

> <PUBCHEM_CONFORMER_DIVERSEORDER>
2
5
8
6
1
4
3
7

> <PUBCHEM_MMFF94_PARTIAL_CHARGES>
17
1 -0.57
10 -0.15
11 -0.15
12 0.14
17 0.15
18 0.15
19 0.15
2 -0.99
20 0.15
21 0.36
22 0.36
3 0.33
4 0.09
5 0.42
7 -0.15
8 -0.15
9 -0.14

> <PUBCHEM_EFFECTIVE_ROTOR_COUNT>
2

> <PUBCHEM_PHARMACOPHORE_FEATURES>
4
1 1 acceptor
1 2 cation
1 2 donor
6 4 7 8 9 10 11 rings

> <PUBCHEM_HEAVY_ATOM_COUNT>
12

> <PUBCHEM_ATOM_DEF_STEREO_COUNT>
0

> <PUBCHEM_ATOM_UDEF_STEREO_COUNT>
1

> <PUBCHEM_BOND_DEF_STEREO_COUNT>
0

> <PUBCHEM_BOND_UDEF_STEREO_COUNT>
0

> <PUBCHEM_ISOTOPIC_ATOM_COUNT>
0

> <PUBCHEM_COMPONENT_COUNT>
1

> <PUBCHEM_CACTVS_TAUTO_COUNT>
4

> <PUBCHEM_CONFORMER_ID>
0006534400000002

> <PUBCHEM_MMFF94_ENERGY>
28.3304

> <PUBCHEM_FEATURE_SELFOVERLAP>
20.297

> <PUBCHEM_SHAPE_FINGERPRINT>
10130415 120 18335696088391631114
10608611 8 18335699476693851780
11062470 55 17917712387779526904
11401426 45 18272362084243918684
11471102 20 18410290268223015060
11543360 7 16200147750838519108
12138202 97 18040989674440979599
124424 183 18040708165236016202
12932764 1 17385441029144500994
13380535 76 18408882936300021954
13705890 14 15554448513618968308
14144814 61 18410573963713583609
14325111 11 18410295856339411944
14993402 34 17703783730304175596
15775835 57 18202004300422120805
16945 1 18334576815387230284
17844478 74 17822304444070510529
18186145 218 18187088308447088430
19026448 4 16009031657489433088
19026448 5 15051745196256495530
200 152 18130781309119706047
20201158 50 18410008823469330950
20645464 45 18113903753777128187
20645477 70 18339073770521326903
23402539 116 18342167882715656229
23402655 69 18342165623552640429
23559900 14 18340775918839496612
25 1 18336264552708533287
2748010 2 18194403526868363960
3248919 1 18411133645165224538
528886 8 18411416215622333394
53812653 166 18411981373378894472
57812782 119 11672061926249501220
6333449 129 18334295400614044739
8030462 33 18201997733327259561

> <PUBCHEM_SHAPE_MULTIPOLES>
236.1
6.22
1.39
0.86
0.49
0.17
0.13
-1.18
0.95
0.08
-0.18
-0.71
-0.01
0

> <PUBCHEM_SHAPE_SELFOVERLAP>
484.176

> <PUBCHEM_SHAPE_VOLUME>
138.2

> <PUBCHEM_COORDINATE_TYPE>
2
5
10

$$$$
436156
  -OEChem-12271619453D

 23 23  0     1  0  0  0  0  0999 V2000
   -1.9952   -1.3892    0.0875 S   0  0  0  0  0  0  0  0  0  0  0  0
    2.8892   -0.2496   -0.5469 N   0  0  0  0  0  0  0  0  0  0  0  0
    1.5784    0.1603   -0.0347 C   0  0  1  0  0  0  0  0  0  0  0  0
    0.4693   -0.5531   -0.8294 C   0  0  0  0  0  0  0  0  0  0  0  0
    1.5251   -0.1577    1.4597 C   0  0  0  0  0  0  0  0  0  0  0  0
   -0.9259   -0.1651   -0.4022 C   0  0  0  0  0  0  0  0  0  0  0  0
   -1.4593    1.0839   -0.3569 C   0  0  0  0  0  0  0  0  0  0  0  0
    3.9531    0.4577    0.1459 C   0  0  0  0  0  0  0  0  0  0  0  0
   -2.8083    1.0477    0.0997 C   0  0  0  0  0  0  0  0  0  0  0  0
   -3.2265   -0.2350    0.3773 C   0  0  0  0  0  0  0  0  0  0  0  0
    1.4584    1.2437   -0.1675 H   0  0  0  0  0  0  0  0  0  0  0  0
    0.6094   -1.6402   -0.7543 H   0  0  0  0  0  0  0  0  0  0  0  0
    0.5691   -0.3070   -1.8959 H   0  0  0  0  0  0  0  0  0  0  0  0
    2.1980    0.4742    2.0483 H   0  0  0  0  0  0  0  0  0  0  0  0
    1.7711   -1.2073    1.6586 H   0  0  0  0  0  0  0  0  0  0  0  0
    0.5260    0.0234    1.8696 H   0  0  0  0  0  0  0  0  0  0  0  0
    2.9371   -0.0329   -1.5425 H   0  0  0  0  0  0  0  0  0  0  0  0
   -0.9328    1.9881   -0.6336 H   0  0  0  0  0  0  0  0  0  0  0  0
    4.8894    0.3068   -0.4031 H   0  0  0  0  0  0  0  0  0  0  0  0
    4.1307    0.0650    1.1514 H   0  0  0  0  0  0  0  0  0  0  0  0
    3.7798    1.5381    0.1919 H   0  0  0  0  0  0  0  0  0  0  0  0
   -3.4403    1.9183    0.2179 H   0  0  0  0  0  0  0  0  0  0  0  0
   -4.1963   -0.5497    0.7362 H   0  0  0  0  0  0  0  0  0  0  0  0
  1  6  1  0  0  0  0
  1 10  1  0  0  0  0
  2  3  1  0  0  0  0
  2  8  1  0  0  0  0
  2 17  1  0  0  0  0
  3  4  1  0  0  0  0
  3  5  1  0  0  0  0
  3 11  1  0  0  0  0
  4  6  1  0  0  0  0
  4 12  1  0  0  0  0
  4 13  1  0  0  0  0
  5 14  1  0  0  0  0
  5 15  1  0  0  0  0
  5 16  1  0  0  0  0
  6  7  2  0  0  0  0
  7  9  1  0  0  0  0
  7 18  1  0  0  0  0
  8 19  1  0  0  0  0
  8 20  1  0  0  0  0
  8 21  1  0  0  0  0
  9 10  2  0  0  0  0
  9 22  1  0  0  0  0
 10 23  1  0  0  0  0
M  END
> <PUBCHEM_COMPOUND_CID>
436156

> <PUBCHEM_CONFORMER_RMSD>
0.6

> <PUBCHEM_CONFORMER_DIVERSEORDER>
1
7
18
14
19
9
17
8
16
12
11
4
23
22
6
10
5
20
13
3
15
21
2

> <PUBCHEM_MMFF94_PARTIAL_CHARGES>
13
1 -0.08
10 -0.11
17 0.36
18 0.15
2 -0.9
22 0.15
23 0.15
3 0.27
4 0.18
6 -0.14
7 -0.15
8 0.27
9 -0.15

> <PUBCHEM_EFFECTIVE_ROTOR_COUNT>
3

> <PUBCHEM_PHARMACOPHORE_FEATURES>
3
1 2 cation
1 2 donor
5 1 6 7 9 10 rings

> <PUBCHEM_HEAVY_ATOM_COUNT>
10

> <PUBCHEM_ATOM_DEF_STEREO_COUNT>
0

> <PUBCHEM_ATOM_UDEF_STEREO_COUNT>
1

> <PUBCHEM_BOND_DEF_STEREO_COUNT>
0

> <PUBCHEM_BOND_UDEF_STEREO_COUNT>
0

> <PUBCHEM_ISOTOPIC_ATOM_COUNT>
0

> <PUBCHEM_COMPONENT_COUNT>
1

> <PUBCHEM_CACTVS_TAUTO_COUNT>
1

> <PUBCHEM_CONFORMER_ID>
0006A7BC00000001

> <PUBCHEM_MMFF94_ENERGY>
8.3329

> <PUBCHEM_FEATURE_SELFOVERLAP>
15.223

> <PUBCHEM_SHAPE_FINGERPRINT>
10857977 72 18412824715993026889
11031198 65 17060345101892298404
11062470 55 11963389652210235895
124424 183 17632293441522338942
12932764 1 17603577526156506084
13024252 1 15068339012831569885
14325111 11 18413390916967744030
15775835 57 18040715831568133753
190213 19 17749390364575528342
20645464 45 18131357397072007215
20653085 51 15482664689307203291
20871998 184 18270126828491835799
23235685 24 18273211971860897661
23402539 116 18413100672269117455
3248919 1 18408595963954797294
369184 2 17240479191720000101
5084963 1 17703506692023491007
75552 356 18261395580706059695

> <PUBCHEM_SHAPE_MULTIPOLES>
204.66
5.94
1.15
0.97
3.51
0.05
-0.22
-0.72
-0.54
-0.85
0.03
0.34
0.09
0.07

> <PUBCHEM_SHAPE_SELFOVERLAP>
392.267

> <PUBCHEM_SHAPE_VOLUME>
127.4

> <PUBCHEM_COORDINATE_TYPE>
2
5
10

$$$$
44418862
  -OEChem-12271619463D

 36 37  0     1  0  0  0  0  0999 V2000
    3.2664    0.9046    2.3898 Cl  0  0  0  0  0  0  0  0  0  0  0  0
    4.9031    1.3942   -0.3586 Cl  0  0  0  0  0  0  0  0  0  0  0  0
   -0.0529   -2.9342   -0.4480 O   0  0  0  0  0  0  0  0  0  0  0  0
   -1.6382   -2.3214    1.1061 O   0  0  0  0  0  0  0  0  0  0  0  0
   -1.3810    1.6664   -0.2336 N   0  0  0  0  0  0  0  0  0  0  0  0
   -1.7677    0.2966    0.1268 C   0  0  1  0  0  0  0  0  0  0  0  0
   -3.1897   -0.0138   -0.3606 C   0  0  0  0  0  0  0  0  0  0  0  0
   -0.7666   -0.6820   -0.4843 C   0  0  1  0  0  0  0  0  0  0  0  0
   -4.1926    1.0041    0.1755 C   0  0  0  0  0  0  0  0  0  0  0  0
   -3.7308    2.4243   -0.1329 C   0  0  0  0  0  0  0  0  0  0  0  0
   -2.2968    2.6540    0.3380 C   0  0  0  0  0  0  0  0  0  0  0  0
    0.6609   -0.1580   -0.4355 C   0  0  0  0  0  0  0  0  0  0  0  0
   -0.8896   -2.0508    0.1758 C   0  0  0  0  0  0  0  0  0  0  0  0
    1.2638    0.1119    0.7930 C   0  0  0  0  0  0  0  0  0  0  0  0
    1.3668    0.0522   -1.6201 C   0  0  0  0  0  0  0  0  0  0  0  0
    2.5728    0.5917    0.8371 C   0  0  0  0  0  0  0  0  0  0  0  0
    2.6758    0.5322   -1.5759 C   0  0  0  0  0  0  0  0  0  0  0  0
    3.2788    0.8019   -0.3473 C   0  0  0  0  0  0  0  0  0  0  0  0
   -0.0823   -4.2739    0.0548 C   0  0  0  0  0  0  0  0  0  0  0  0
   -1.7423    0.2176    1.2226 H   0  0  0  0  0  0  0  0  0  0  0  0
   -3.5063   -1.0150   -0.0496 H   0  0  0  0  0  0  0  0  0  0  0  0
   -3.2256   -0.0002   -1.4582 H   0  0  0  0  0  0  0  0  0  0  0  0
   -1.0393   -0.8370   -1.5389 H   0  0  0  0  0  0  0  0  0  0  0  0
   -4.2955    0.8796    1.2604 H   0  0  0  0  0  0  0  0  0  0  0  0
   -5.1802    0.8266   -0.2643 H   0  0  0  0  0  0  0  0  0  0  0  0
   -3.7971    2.6034   -1.2135 H   0  0  0  0  0  0  0  0  0  0  0  0
   -4.4000    3.1441    0.3518 H   0  0  0  0  0  0  0  0  0  0  0  0
   -1.3858    1.7601   -1.2499 H   0  0  0  0  0  0  0  0  0  0  0  0
   -1.9700    3.6557    0.0386 H   0  0  0  0  0  0  0  0  0  0  0  0
   -2.2439    2.6212    1.4329 H   0  0  0  0  0  0  0  0  0  0  0  0
    0.7146   -0.0561    1.7167 H   0  0  0  0  0  0  0  0  0  0  0  0
    0.9109   -0.1531   -2.5847 H   0  0  0  0  0  0  0  0  0  0  0  0
    3.2113    0.6903   -2.5088 H   0  0  0  0  0  0  0  0  0  0  0  0
    0.6250   -4.8707   -0.5272 H   0  0  0  0  0  0  0  0  0  0  0  0
   -1.0828   -4.7008   -0.0633 H   0  0  0  0  0  0  0  0  0  0  0  0
    0.2247   -4.2906    1.1048 H   0  0  0  0  0  0  0  0  0  0  0  0
  1 16  1  0  0  0  0
  2 18  1  0  0  0  0
  3 13  1  0  0  0  0
  3 19  1  0  0  0  0
  4 13  2  0  0  0  0
  5  6  1  0  0  0  0
  5 11  1  0  0  0  0
  5 28  1  0  0  0  0
  6  7  1  0  0  0  0
  6  8  1  0  0  0  0
  6 20  1  0  0  0  0
  7  9  1  0  0  0  0
  7 21  1  0  0  0  0
  7 22  1  0  0  0  0
  8 12  1  0  0  0  0
  8 13  1  0  0  0  0
  8 23  1  0  0  0  0
  9 10  1  0  0  0  0
  9 24  1  0  0  0  0
  9 25  1  0  0  0  0
 10 11  1  0  0  0  0
 10 26  1  0  0  0  0
 10 27  1  0  0  0  0
 11 29  1  0  0  0  0
 11 30  1  0  0  0  0
 12 14  2  0  0  0  0
 12 15  1  0  0  0  0
 14 16  1  0  0  0  0
 14 31  1  0  0  0  0
 15 17  2  0  0  0  0
 15 32  1  0  0  0  0
 16 18  2  0  0  0  0
 17 18  1  0  0  0  0
 17 33  1  0  0  0  0
 19 34  1  0  0  0  0
 19 35  1  0  0  0  0
 19 36  1  0  0  0  0
M  END
> <PUBCHEM_COMPOUND_CID>
44418862

> <PUBCHEM_CONFORMER_RMSD>
0.8

> <PUBCHEM_CONFORMER_DIVERSEORDER>
1
77
87
55
7
51
22
71
57
54
62
85
88
83
81
64
73
53
42
82
45
74
72
76
9
61
89
66
69
86
43
19
63
38
41
56
67
44
13
40
27
60
17
24
75
35
36
79
39
65
52
8
58
14
68
12
33
30
15
46
23
84
78
21
29
34
37
90
32
11
80
25
31
16
10
20
28
5
18
26
50
70
4
49
59
48
3
2
6
47

> <PUBCHEM_MMFF94_PARTIAL_CHARGES>
20
1 -0.18
11 0.27
12 -0.14
13 0.66
14 -0.15
15 -0.15
16 0.18
17 -0.15
18 0.18
19 0.28
2 -0.18
28 0.36
3 -0.43
31 0.15
32 0.15
33 0.15
4 -0.57
5 -0.9
6 0.27
8 0.2

> <PUBCHEM_EFFECTIVE_ROTOR_COUNT>
5.2

> <PUBCHEM_PHARMACOPHORE_FEATURES>
5
1 4 acceptor
1 5 cation
1 5 donor
6 12 14 15 16 17 18 rings
6 5 6 7 9 10 11 rings

> <PUBCHEM_HEAVY_ATOM_COUNT>
19

> <PUBCHEM_ATOM_DEF_STEREO_COUNT>
0

> <PUBCHEM_ATOM_UDEF_STEREO_COUNT>
2

> <PUBCHEM_BOND_DEF_STEREO_COUNT>
0

> <PUBCHEM_BOND_UDEF_STEREO_COUNT>
0

> <PUBCHEM_ISOTOPIC_ATOM_COUNT>
0

> <PUBCHEM_COMPONENT_COUNT>
1

> <PUBCHEM_CACTVS_TAUTO_COUNT>
1

> <PUBCHEM_CONFORMER_ID>
02A5C72E00000001

> <PUBCHEM_MMFF94_ENERGY>
34.0123

> <PUBCHEM_FEATURE_SELFOVERLAP>
25.371

> <PUBCHEM_SHAPE_FINGERPRINT>
10498660 4 18340207375984899549
11582403 64 16913929765883090466
11640471 11 17677059052409366460
11725454 13 17058334146928441642
12173636 292 18410011065320947036
12236239 1 17603864541556736348
12500047 106 18340768238768038694
12553582 1 17688029030138457026
12716301 132 18340770450370351682
12788726 201 17682135596236734954
13294875 104 17984695615464639194
13538477 17 18113895022024232336
13583140 156 17845084251034909514
13764800 53 18336557091705627897
13878862 14 17544187183046921653
13965767 371 17751081310222383212
15906896 17 17970075632520187547
16752209 62 18263924517426960607
16945 1 18339356495385683206
1741750 31 18408891745462328548
17980427 23 16763355784565556645
18186145 218 17846221025050203449
20028762 73 17912939563225014903
20510252 161 18341342179289536977
20600515 1 17471253685465762623
20645476 183 18333733545623868444
20671657 1 17835246645127658645
212916 134 18341316843261744256
21524375 3 18200593592527654621
22112679 90 17677606648060043124
23366157 5 17900265195705095523
23402539 116 18341608252281584917
23493267 7 18342459292025698880
23526113 38 17702962348163860270
23557571 272 18055642960609720436
23559900 14 18193838141457320476
23598288 3 17825967080147529182
23598294 1 18190458448993449202
25 1 17703516493107426280
305870 269 18265614286404379567
3091708 16 9123163062786003787
350125 39 17977392629400574381
43471831 8 18337388245456035299
458136 41 18195543510120533561
474229 33 18336270119650800147
633830 44 18200877253743407309
6442390 28 18341069457635660123
7364860 26 17908701731271343479
77492 1 17531241820175028732
7808743 9 18337956808926911932
81228 2 17982736573517872355
84936 182 18055355734381702129
9981440 41 18408887308818978691

> <PUBCHEM_SHAPE_MULTIPOLES>
378.03
7.19
3.51
1.41
1.81
4.42
-0.4
-6.39
-0.35
-2.47
-0.38
1.68
-0.26
0.27

> <PUBCHEM_SHAPE_SELFOVERLAP>
768.428

> <PUBCHEM_SHAPE_VOLUME>
221.3

> <PUBCHEM_COORDINATE_TYPE>
2
5
10

$$$$
45266826
  -OEChem-12271619123D

 28 28  0     1  0  0  0  0  0999 V2000
    1.6085    1.7661   -0.5392 O   0  0  0  0  0  0  0  0  0  0  0  0
    3.1309   -0.2940    0.8640 N   0  0  0  0  0  0  0  0  0  0  0  0
    2.2568   -0.5434   -0.2840 C   0  0  1  0  0  0  0  0  0  0  0  0
    1.2145    0.5937   -0.3613 C   0  0  0  0  0  0  0  0  0  0  0  0
   -0.2050    0.3138   -0.2140 C   0  0  0  0  0  0  0  0  0  0  0  0
    3.0888   -0.5869   -1.5592 C   0  0  0  0  0  0  0  0  0  0  0  0
   -0.7188   -0.9193   -0.6155 C   0  0  0  0  0  0  0  0  0  0  0  0
   -1.0530    1.2792    0.3287 C   0  0  0  0  0  0  0  0  0  0  0  0
   -2.9283   -0.2213    0.0678 C   0  0  0  0  0  0  0  0  0  0  0  0
   -2.0803   -1.1869   -0.4748 C   0  0  0  0  0  0  0  0  0  0  0  0
   -2.4147    1.0118    0.4695 C   0  0  0  0  0  0  0  0  0  0  0  0
    2.4850   -0.7051    2.0999 C   0  0  0  0  0  0  0  0  0  0  0  0
   -4.3843   -0.5079    0.2181 C   0  0  0  0  0  0  0  0  0  0  0  0
    1.7856   -1.5234   -0.1720 H   0  0  0  0  0  0  0  0  0  0  0  0
    2.4441   -0.7347   -2.4327 H   0  0  0  0  0  0  0  0  0  0  0  0
    3.8129   -1.4086   -1.5329 H   0  0  0  0  0  0  0  0  0  0  0  0
    3.6409    0.3467   -1.7175 H   0  0  0  0  0  0  0  0  0  0  0  0
    3.9931   -0.8289    0.7588 H   0  0  0  0  0  0  0  0  0  0  0  0
   -0.0989   -1.6830   -1.0746 H   0  0  0  0  0  0  0  0  0  0  0  0
   -0.6709    2.2439    0.6524 H   0  0  0  0  0  0  0  0  0  0  0  0
   -2.4701   -2.1489   -0.7968 H   0  0  0  0  0  0  0  0  0  0  0  0
   -3.0648    1.7710    0.8962 H   0  0  0  0  0  0  0  0  0  0  0  0
    2.2423   -1.7730    2.0974 H   0  0  0  0  0  0  0  0  0  0  0  0
    3.1654   -0.5242    2.9384 H   0  0  0  0  0  0  0  0  0  0  0  0
    1.5748   -0.1306    2.2977 H   0  0  0  0  0  0  0  0  0  0  0  0
   -4.5779   -0.9680    1.1921 H   0  0  0  0  0  0  0  0  0  0  0  0
   -4.9781    0.4091    0.1390 H   0  0  0  0  0  0  0  0  0  0  0  0
   -4.7364   -1.1858   -0.5670 H   0  0  0  0  0  0  0  0  0  0  0  0
  1  4  2  0  0  0  0
  2  3  1  0  0  0  0
  2 12  1  0  0  0  0
  2 18  1  0  0  0  0
  3  4  1  0  0  0  0
  3  6  1  0  0  0  0
  3 14  1  0  0  0  0
  4  5  1  0  0  0  0
  5  7  2  0  0  0  0
  5  8  1  0  0  0  0
  6 15  1  0  0  0  0
  6 16  1  0  0  0  0
  6 17  1  0  0  0  0
  7 10  1  0  0  0  0
  7 19  1  0  0  0  0
  8 11  2  0  0  0  0
  8 20  1  0  0  0  0
  9 10  2  0  0  0  0
  9 11  1  0  0  0  0
  9 13  1  0  0  0  0
 10 21  1  0  0  0  0
 11 22  1  0  0  0  0
 12 23  1  0  0  0  0
 12 24  1  0  0  0  0
 12 25  1  0  0  0  0
 13 26  1  0  0  0  0
 13 27  1  0  0  0  0
 13 28  1  0  0  0  0
M  END
> <PUBCHEM_COMPOUND_CID>
45266826

> <PUBCHEM_CONFORMER_RMSD>
0.6

> <PUBCHEM_CONFORMER_DIVERSEORDER>
1
12
11
14
8
16
21
4
7
15
3
5
9
10
18
17
19
20
13
6
2

> <PUBCHEM_MMFF94_PARTIAL_CHARGES>
17
1 -0.57
10 -0.15
11 -0.15
12 0.27
13 0.14
18 0.36
19 0.15
2 -0.9
20 0.15
21 0.15
22 0.15
3 0.33
4 0.42
5 0.09
7 -0.15
8 -0.15
9 -0.14

> <PUBCHEM_EFFECTIVE_ROTOR_COUNT>
3

> <PUBCHEM_PHARMACOPHORE_FEATURES>
4
1 1 acceptor
1 2 cation
1 2 donor
6 5 7 8 9 10 11 rings

> <PUBCHEM_HEAVY_ATOM_COUNT>
13

> <PUBCHEM_ATOM_DEF_STEREO_COUNT>
0

> <PUBCHEM_ATOM_UDEF_STEREO_COUNT>
1

> <PUBCHEM_BOND_DEF_STEREO_COUNT>
0

> <PUBCHEM_BOND_UDEF_STEREO_COUNT>
0

> <PUBCHEM_ISOTOPIC_ATOM_COUNT>
0

> <PUBCHEM_COMPONENT_COUNT>
1

> <PUBCHEM_CACTVS_TAUTO_COUNT>
7

> <PUBCHEM_CONFORMER_ID>
02B2B78A00000001

> <PUBCHEM_MMFF94_ENERGY>
31.2548

> <PUBCHEM_FEATURE_SELFOVERLAP>
20.297

> <PUBCHEM_SHAPE_FINGERPRINT>
10130415 120 18411136969918337081
10857977 72 18131627889717102145
11132069 177 18060698399299930535
11543360 7 15936698185044268391
11769659 78 17822286937836540323
12032990 46 18272101517136532055
12932764 1 17894912944730637637
13675066 3 17847065480477460619
13760787 19 17458635527238868355
14144814 61 18408606941785548237
15219456 202 16988559074462776794
16945 1 18411419484134676135
17804303 29 17702957907067534006
18186145 218 18186802517360301511
19026448 5 17022906731383139853
19049666 15 17130431172923885560
200 152 16660360368246449274
20361792 2 17894622639322193926
20510252 161 17846222120382902361
20528008 55 17060613408710275743
20559304 39 18410858758794972444
20645464 45 17275094020621844418
20645476 183 17604724381388588743
20645477 70 18040996267342340463
20715346 28 17703504402811242524
21501925 9 18341607140037860089
2255824 54 17895482534803842268
23402539 116 17632291255837659773
23463225 33 18412832382398900135
23552423 10 18117561940478966469
23559900 14 17917997148543284828
3248919 1 18201435908697409581
5084963 1 17917442990108304421
57812782 119 17203609246472274463
69090 78 16845285043105579375
7364860 26 18059018409767729412
8030462 33 17530973470544736036

> <PUBCHEM_SHAPE_MULTIPOLES>
256.68
6.3
1.35
1.29
2.38
0.09
0.52
0.9
1.32
-0.05
-0.2
-1.39
-0.33
0.68

> <PUBCHEM_SHAPE_SELFOVERLAP>
522.283

> <PUBCHEM_SHAPE_VOLUME>
151.3

> <PUBCHEM_COORDINATE_TYPE>
2
5
10

$$$$
458519
  -OEChem-12271619083D

 28 28  0     1  0  0  0  0  0999 V2000
    0.7971    0.7158    1.8379 O   0  0  0  0  0  0  0  0  0  0  0  0
    2.6358   -0.0195   -0.3081 N   0  0  0  0  0  0  0  0  0  0  0  0
    1.5425    0.9447   -0.4449 C   0  0  1  0  0  0  0  0  0  0  0  0
    0.4799    0.6346    0.6319 C   0  0  0  0  0  0  0  0  0  0  0  0
    2.0819    2.3576   -0.2653 C   0  0  0  0  0  0  0  0  0  0  0  0
    2.1467   -1.3781   -0.4775 C   0  0  0  0  0  0  0  0  0  0  0  0
   -0.8672    0.2371    0.2554 C   0  0  0  0  0  0  0  0  0  0  0  0
    3.2727   -2.3884   -0.3374 C   0  0  0  0  0  0  0  0  0  0  0  0
   -1.4235    0.7000   -0.9372 C   0  0  0  0  0  0  0  0  0  0  0  0
   -1.6033   -0.6076    1.0864 C   0  0  0  0  0  0  0  0  0  0  0  0
   -2.7156    0.3186   -1.2985 C   0  0  0  0  0  0  0  0  0  0  0  0
   -2.8954   -0.9891    0.7250 C   0  0  0  0  0  0  0  0  0  0  0  0
   -3.4515   -0.5258   -0.4676 C   0  0  0  0  0  0  0  0  0  0  0  0
    1.1331    0.8585   -1.4547 H   0  0  0  0  0  0  0  0  0  0  0  0
    3.3584    0.1782   -0.9998 H   0  0  0  0  0  0  0  0  0  0  0  0
    2.5544    2.4919    0.7145 H   0  0  0  0  0  0  0  0  0  0  0  0
    2.8235    2.5985   -1.0347 H   0  0  0  0  0  0  0  0  0  0  0  0
    1.2702    3.0899   -0.3384 H   0  0  0  0  0  0  0  0  0  0  0  0
    1.3996   -1.6425    0.2776 H   0  0  0  0  0  0  0  0  0  0  0  0
    1.6857   -1.5009   -1.4649 H   0  0  0  0  0  0  0  0  0  0  0  0
    4.0475   -2.2252   -1.0941 H   0  0  0  0  0  0  0  0  0  0  0  0
    3.7401   -2.3251    0.6511 H   0  0  0  0  0  0  0  0  0  0  0  0
    2.8877   -3.4055   -0.4643 H   0  0  0  0  0  0  0  0  0  0  0  0
   -0.8972    1.3864   -1.5931 H   0  0  0  0  0  0  0  0  0  0  0  0
   -1.1856   -0.9832    2.0169 H   0  0  0  0  0  0  0  0  0  0  0  0
   -3.1521    0.6854   -2.2230 H   0  0  0  0  0  0  0  0  0  0  0  0
   -3.4684   -1.6474    1.3714 H   0  0  0  0  0  0  0  0  0  0  0  0
   -4.4582   -0.8216   -0.7481 H   0  0  0  0  0  0  0  0  0  0  0  0
  1  4  2  0  0  0  0
  2  3  1  0  0  0  0
  2  6  1  0  0  0  0
  2 15  1  0  0  0  0
  3  4  1  0  0  0  0
  3  5  1  0  0  0  0
  3 14  1  0  0  0  0
  4  7  1  0  0  0  0
  5 16  1  0  0  0  0
  5 17  1  0  0  0  0
  5 18  1  0  0  0  0
  6  8  1  0  0  0  0
  6 19  1  0  0  0  0
  6 20  1  0  0  0  0
  7  9  2  0  0  0  0
  7 10  1  0  0  0  0
  8 21  1  0  0  0  0
  8 22  1  0  0  0  0
  8 23  1  0  0  0  0
  9 11  1  0  0  0  0
  9 24  1  0  0  0  0
 10 12  2  0  0  0  0
 10 25  1  0  0  0  0
 11 13  2  0  0  0  0
 11 26  1  0  0  0  0
 12 13  1  0  0  0  0
 12 27  1  0  0  0  0
 13 28  1  0  0  0  0
M  END
> <PUBCHEM_COMPOUND_CID>
458519

> <PUBCHEM_CONFORMER_RMSD>
0.6

> <PUBCHEM_CONFORMER_DIVERSEORDER>
4
37
9
17
34
40
48
22
30
47
3
25
16
41
28
27
46
29
14
38
23
5
12
44
18
20
31
24
32
8
26
42
43
21
7
45
15
36
19
33
2
10
39
13
35
6
1
11

> <PUBCHEM_MMFF94_PARTIAL_CHARGES>
17
1 -0.57
10 -0.15
11 -0.15
12 -0.15
13 -0.15
15 0.36
2 -0.9
24 0.15
25 0.15
26 0.15
27 0.15
28 0.15
3 0.33
4 0.42
6 0.27
7 0.09
9 -0.15

> <PUBCHEM_EFFECTIVE_ROTOR_COUNT>
4

> <PUBCHEM_PHARMACOPHORE_FEATURES>
4
1 1 acceptor
1 2 cation
1 2 donor
6 7 9 10 11 12 13 rings

> <PUBCHEM_HEAVY_ATOM_COUNT>
13

> <PUBCHEM_ATOM_DEF_STEREO_COUNT>
0

> <PUBCHEM_ATOM_UDEF_STEREO_COUNT>
1

> <PUBCHEM_BOND_DEF_STEREO_COUNT>
0

> <PUBCHEM_BOND_UDEF_STEREO_COUNT>
0

> <PUBCHEM_ISOTOPIC_ATOM_COUNT>
0

> <PUBCHEM_COMPONENT_COUNT>
1

> <PUBCHEM_CACTVS_TAUTO_COUNT>
2

> <PUBCHEM_CONFORMER_ID>
0006FF1700000004

> <PUBCHEM_MMFF94_ENERGY>
25.2008

> <PUBCHEM_FEATURE_SELFOVERLAP>
20.297

> <PUBCHEM_SHAPE_FINGERPRINT>
107287 299 18191311678538082780
11137873 295 18265059045901839519
12202030 40 18339641247718281699
12716758 59 17603304851810410427
12932764 1 17274544342592167001
14252887 29 17751940252747994043
15219456 202 18260830448740466541
15375462 189 17632578270752528210
16945 1 18340215184060616628
17357990 137 13623524645534046390
17834072 14 18262510378507720082
18186145 218 17749377149404400557
19786989 88 18192152817802467472
20201158 50 18407762538393848586
20361792 2 17632574924793539700
20645477 70 18410287034498016631
20671657 53 18338242544510686798
20711985 344 17833824972250348464
22802520 49 18187366514995774493
232386 152 16630806608056653278
23557571 272 17386858385827540243
23559900 14 17970618594555526250
2748010 2 17676767677590657645
3248919 1 18337945787892611321
8030462 33 17846504784986380457
81228 2 17692256236088180184

> <PUBCHEM_SHAPE_MULTIPOLES>
256.68
5.49
1.97
1.25
0.7
0.11
0.28
2.41
-1.28
-2.47
-0.23
0.46
-0.1
0.7

> <PUBCHEM_SHAPE_SELFOVERLAP>
518.669

> <PUBCHEM_SHAPE_VOLUME>
150.8

> <PUBCHEM_COORDINATE_TYPE>
2
5
10

$$$$
4660557
  -OEChem-12271620073D

 38 41  0     0  0  0  0  0  0999 V2000
   -6.1328    0.7703   -0.2672 Br  0  0  0  0  0  0  0  0  0  0  0  0
   -0.3086   -0.9001    0.3460 N   0  0  0  0  0  0  0  0  0  0  0  0
    1.9891   -0.6770    1.2204 C   0  0  0  0  0  0  0  0  0  0  0  0
    1.2036    0.7668   -0.6946 C   0  0  0  0  0  0  0  0  0  0  0  0
    3.4758    1.1646    0.3363 C   0  0  0  0  0  0  0  0  0  0  0  0
    3.0692   -0.8985   -1.0524 C   0  0  0  0  0  0  0  0  0  0  0  0
    0.7703    0.0335    0.5932 C   0  0  0  0  0  0  0  0  0  0  0  0
    3.0332    0.3943    1.5944 C   0  0  0  0  0  0  0  0  0  0  0  0
    2.6271   -1.6539    0.2121 C   0  0  0  0  0  0  0  0  0  0  0  0
    2.2503    1.8333   -0.3143 C   0  0  0  0  0  0  0  0  0  0  0  0
    1.8464   -0.2190   -1.6913 C   0  0  0  0  0  0  0  0  0  0  0  0
    4.0989    0.1765   -0.6643 C   0  0  0  0  0  0  0  0  0  0  0  0
   -1.6316   -0.5206    0.2065 C   0  0  0  0  0  0  0  0  0  0  0  0
   -2.6377   -1.4762   -0.0349 C   0  0  0  0  0  0  0  0  0  0  0  0
   -2.0110    0.8324    0.3020 C   0  0  0  0  0  0  0  0  0  0  0  0
   -3.9717   -1.0937   -0.1756 C   0  0  0  0  0  0  0  0  0  0  0  0
   -3.3450    1.2151    0.1613 C   0  0  0  0  0  0  0  0  0  0  0  0
   -4.3253    0.2521   -0.0775 C   0  0  0  0  0  0  0  0  0  0  0  0
    1.6880   -1.2274    2.1198 H   0  0  0  0  0  0  0  0  0  0  0  0
    0.3552    1.2577   -1.1826 H   0  0  0  0  0  0  0  0  0  0  0  0
    4.2123    1.9282    0.6098 H   0  0  0  0  0  0  0  0  0  0  0  0
    3.5183   -1.5994   -1.7649 H   0  0  0  0  0  0  0  0  0  0  0  0
    0.4407    0.7660    1.3420 H   0  0  0  0  0  0  0  0  0  0  0  0
    3.9021   -0.0795    2.0678 H   0  0  0  0  0  0  0  0  0  0  0  0
    2.6121    1.0901    2.3305 H   0  0  0  0  0  0  0  0  0  0  0  0
    1.9298   -2.4556   -0.0547 H   0  0  0  0  0  0  0  0  0  0  0  0
    3.4951   -2.1428    0.6724 H   0  0  0  0  0  0  0  0  0  0  0  0
    1.8095    2.5618    0.3773 H   0  0  0  0  0  0  0  0  0  0  0  0
    2.5588    2.3904   -1.2077 H   0  0  0  0  0  0  0  0  0  0  0  0
    2.1506    0.3162   -2.5995 H   0  0  0  0  0  0  0  0  0  0  0  0
    1.1169   -0.9758   -2.0033 H   0  0  0  0  0  0  0  0  0  0  0  0
    4.4367    0.7126   -1.5598 H   0  0  0  0  0  0  0  0  0  0  0  0
    4.9853   -0.2954   -0.2228 H   0  0  0  0  0  0  0  0  0  0  0  0
   -0.0943   -1.8841    0.2345 H   0  0  0  0  0  0  0  0  0  0  0  0
   -2.3797   -2.5301   -0.1144 H   0  0  0  0  0  0  0  0  0  0  0  0
   -1.2942    1.6264    0.4872 H   0  0  0  0  0  0  0  0  0  0  0  0
   -4.7233   -1.8566   -0.3613 H   0  0  0  0  0  0  0  0  0  0  0  0
   -3.6047    2.2677    0.2407 H   0  0  0  0  0  0  0  0  0  0  0  0
  1 18  1  0  0  0  0
  2  7  1  0  0  0  0
  2 13  1  0  0  0  0
  2 34  1  0  0  0  0
  3  7  1  0  0  0  0
  3  8  1  0  0  0  0
  3  9  1  0  0  0  0
  3 19  1  0  0  0  0
  4  7  1  0  0  0  0
  4 10  1  0  0  0  0
  4 11  1  0  0  0  0
  4 20  1  0  0  0  0
  5  8  1  0  0  0  0
  5 10  1  0  0  0  0
  5 12  1  0  0  0  0
  5 21  1  0  0  0  0
  6  9  1  0  0  0  0
  6 11  1  0  0  0  0
  6 12  1  0  0  0  0
  6 22  1  0  0  0  0
  7 23  1  0  0  0  0
  8 24  1  0  0  0  0
  8 25  1  0  0  0  0
  9 26  1  0  0  0  0
  9 27  1  0  0  0  0
 10 28  1  0  0  0  0
 10 29  1  0  0  0  0
 11 30  1  0  0  0  0
 11 31  1  0  0  0  0
 12 32  1  0  0  0  0
 12 33  1  0  0  0  0
 13 14  2  0  0  0  0
 13 15  1  0  0  0  0
 14 16  1  0  0  0  0
 14 35  1  0  0  0  0
 15 17  2  0  0  0  0
 15 36  1  0  0  0  0
 16 18  2  0  0  0  0
 16 37  1  0  0  0  0
 17 18  1  0  0  0  0
 17 38  1  0  0  0  0
M  END
> <PUBCHEM_COMPOUND_CID>
4660557

> <PUBCHEM_CONFORMER_RMSD>
0.6

> <PUBCHEM_CONFORMER_DIVERSEORDER>
1
4
5
3
2

> <PUBCHEM_MMFF94_PARTIAL_CHARGES>
14
1 -0.11
13 0.1
14 -0.15
15 -0.15
16 -0.15
17 -0.15
18 0.11
2 -0.87
34 0.4
35 0.15
36 0.15
37 0.15
38 0.15
7 0.37

> <PUBCHEM_EFFECTIVE_ROTOR_COUNT>
3.2

> <PUBCHEM_PHARMACOPHORE_FEATURES>
8
1 1 hydrophobe
1 2 cation
1 2 donor
6 13 14 15 16 17 18 rings
6 3 4 5 7 8 10 rings
6 3 4 6 7 9 11 rings
6 3 5 6 8 9 12 rings
6 4 5 6 10 11 12 rings

> <PUBCHEM_HEAVY_ATOM_COUNT>
18

> <PUBCHEM_ATOM_DEF_STEREO_COUNT>
0

> <PUBCHEM_ATOM_UDEF_STEREO_COUNT>
0

> <PUBCHEM_BOND_DEF_STEREO_COUNT>
0

> <PUBCHEM_BOND_UDEF_STEREO_COUNT>
0

> <PUBCHEM_ISOTOPIC_ATOM_COUNT>
0

> <PUBCHEM_COMPONENT_COUNT>
1

> <PUBCHEM_CACTVS_TAUTO_COUNT>
1

> <PUBCHEM_CONFORMER_ID>
00471D4D00000001

> <PUBCHEM_MMFF94_ENERGY>
53.5111

> <PUBCHEM_FEATURE_SELFOVERLAP>
53.112

> <PUBCHEM_SHAPE_FINGERPRINT>
10366900 7 16415765236435255459
10498660 4 18409728461100347857
10646746 165 18411981351461101981
12236239 1 17822010913004256667
128620 24 18272934955271080923
12916748 109 18409732846668009225
13134695 92 17131832019821314688
13224815 77 18408609188396433179
13296908 3 18202848763864416715
13464513 79 12751238108150355336
13533116 47 18271523083778834567
14144814 61 18187082858154481051
15375358 24 17988922288617605687
15536298 74 18411982459551913457
16945 1 15936684969677500084
1813 80 16662040315251828778
18186145 218 18341899567196954411
19862831 5 18333456443182340943
200 152 15051733071442499659
20279233 1 17132115753739780887
20645477 56 18409166623891407965
20645477 70 16917353597499061639
212847 35 17676767600154801773
22854114 111 17822007622806126425
22854114 59 14418135110790749283
23402539 116 18343294898986993637
23402655 69 18409450288721184517
23557571 272 18129944610614297291
23559900 14 18272936015864389094
300161 21 18334287682763405733
3060560 45 18411422804324114462
3545911 37 18409450288953201993
4047638 21 18412263930233682913
474 4 17460038598301681172
495365 180 17274810359554259562
5104073 3 18408040723815741771
522135 26 18114181904206539139
5281201 14 17846226522502814789
542803 24 17313105258991832285
5939293 188 18337668741032996604
633830 44 18186802521254666975
69090 78 18201718457743141303
74978 22 18260555557922259891
9709674 26 18339929315285324679

> <PUBCHEM_SHAPE_MULTIPOLES>
371.39
10.41
1.55
1.17
13.82
0.01
-0.03
-1.73
-0.86
-0.18
-0.01
-1.21
0.04
0.09

> <PUBCHEM_SHAPE_SELFOVERLAP>
797.512

> <PUBCHEM_SHAPE_VOLUME>
210.8

> <PUBCHEM_COORDINATE_TYPE>
2
5
10

$$$$
49853406
  -OEChem-12271619013D

 25 25  0     1  0  0  0  0  0999 V2000
   -4.2448    0.4914   -0.2191 F   0  0  0  0  0  0  0  0  0  0  0  0
    1.5914   -1.7606    0.5673 O   0  0  0  0  0  0  0  0  0  0  0  0
    3.1209    0.2737   -0.8653 N   0  0  0  0  0  0  0  0  0  0  0  0
    2.2463    0.5429    0.2776 C   0  0  1  0  0  0  0  0  0  0  0  0
    1.2009   -0.5899    0.3711 C   0  0  0  0  0  0  0  0  0  0  0  0
   -0.2178   -0.3085    0.2180 C   0  0  0  0  0  0  0  0  0  0  0  0
    3.0771    0.6037    1.5529 C   0  0  0  0  0  0  0  0  0  0  0  0
   -0.7277    0.9322    0.6004 C   0  0  0  0  0  0  0  0  0  0  0  0
   -1.0683   -1.2788   -0.3119 C   0  0  0  0  0  0  0  0  0  0  0  0
    2.4775    0.6677   -2.1082 C   0  0  0  0  0  0  0  0  0  0  0  0
   -2.0881    1.2026    0.4532 C   0  0  0  0  0  0  0  0  0  0  0  0
   -2.4287   -1.0085   -0.4592 C   0  0  0  0  0  0  0  0  0  0  0  0
   -2.9387    0.2321   -0.0766 C   0  0  0  0  0  0  0  0  0  0  0  0
    1.7780    1.5223    0.1501 H   0  0  0  0  0  0  0  0  0  0  0  0
    2.4318    0.7666    2.4233 H   0  0  0  0  0  0  0  0  0  0  0  0
    3.8035    1.4229    1.5148 H   0  0  0  0  0  0  0  0  0  0  0  0
    3.6264   -0.3289    1.7261 H   0  0  0  0  0  0  0  0  0  0  0  0
    3.9845    0.8078   -0.7674 H   0  0  0  0  0  0  0  0  0  0  0  0
   -0.1062    1.7004    1.0496 H   0  0  0  0  0  0  0  0  0  0  0  0
   -0.6892   -2.2496   -0.6206 H   0  0  0  0  0  0  0  0  0  0  0  0
    2.2377    1.7362   -2.1222 H   0  0  0  0  0  0  0  0  0  0  0  0
    3.1583    0.4722   -2.9430 H   0  0  0  0  0  0  0  0  0  0  0  0
    1.5660    0.0927   -2.2982 H   0  0  0  0  0  0  0  0  0  0  0  0
   -2.4874    2.1656    0.7578 H   0  0  0  0  0  0  0  0  0  0  0  0
   -3.0911   -1.7631   -0.8729 H   0  0  0  0  0  0  0  0  0  0  0  0
  1 13  1  0  0  0  0
  2  5  2  0  0  0  0
  3  4  1  0  0  0  0
  3 10  1  0  0  0  0
  3 18  1  0  0  0  0
  4  5  1  0  0  0  0
  4  7  1  0  0  0  0
  4 14  1  0  0  0  0
  5  6  1  0  0  0  0
  6  8  2  0  0  0  0
  6  9  1  0  0  0  0
  7 15  1  0  0  0  0
  7 16  1  0  0  0  0
  7 17  1  0  0  0  0
  8 11  1  0  0  0  0
  8 19  1  0  0  0  0
  9 12  2  0  0  0  0
  9 20  1  0  0  0  0
 10 21  1  0  0  0  0
 10 22  1  0  0  0  0
 10 23  1  0  0  0  0
 11 13  2  0  0  0  0
 11 24  1  0  0  0  0
 12 13  1  0  0  0  0
 12 25  1  0  0  0  0
M  END
> <PUBCHEM_COMPOUND_CID>
49853406

> <PUBCHEM_CONFORMER_RMSD>
0.6

> <PUBCHEM_CONFORMER_DIVERSEORDER>
1
12
13
3
19
10
8
11
6
14
4
17
20
5
9
7
15
18
16
2

> <PUBCHEM_MMFF94_PARTIAL_CHARGES>
17
1 -0.19
10 0.27
11 -0.15
12 -0.15
13 0.19
18 0.36
19 0.15
2 -0.57
20 0.15
24 0.15
25 0.15
3 -0.9
4 0.33
5 0.42
6 0.09
8 -0.15
9 -0.15

> <PUBCHEM_EFFECTIVE_ROTOR_COUNT>
3

> <PUBCHEM_PHARMACOPHORE_FEATURES>
4
1 2 acceptor
1 3 cation
1 3 donor
6 6 8 9 11 12 13 rings

> <PUBCHEM_HEAVY_ATOM_COUNT>
13

> <PUBCHEM_ATOM_DEF_STEREO_COUNT>
0

> <PUBCHEM_ATOM_UDEF_STEREO_COUNT>
1

> <PUBCHEM_BOND_DEF_STEREO_COUNT>
0

> <PUBCHEM_BOND_UDEF_STEREO_COUNT>
0

> <PUBCHEM_ISOTOPIC_ATOM_COUNT>
0

> <PUBCHEM_COMPONENT_COUNT>
1

> <PUBCHEM_CACTVS_TAUTO_COUNT>
2

> <PUBCHEM_CONFORMER_ID>
02F8B3DE00000001

> <PUBCHEM_MMFF94_ENERGY>
28.744

> <PUBCHEM_FEATURE_SELFOVERLAP>
20.297

> <PUBCHEM_SHAPE_FINGERPRINT>
11031198 65 18187375323752093946
12326174 3 16732983090160757722
12897270 3 18131071545222915418
12932764 1 18272934907862949531
13296908 3 17774724263536114391
15219456 202 16988563545518470104
15775835 57 18261114097128962580
16945 1 18411136965449251041
18186145 218 17846500288292856097
19026448 5 17022617598458641419
19786989 88 17022622000320370679
20201158 50 16559043674724324550
20279233 1 17203327835999187990
20539784 86 15068339034127344076
20559304 39 18337948996143283458
20645476 183 18261399978700148431
20645477 70 15626509375757958037
20671657 53 15840733798125246884
22802520 49 17346053194059041726
23402539 116 17846200203338662296
23552423 10 18263924337096298091
23557571 272 17702383051211469350
23559900 14 18202004365685296300
2748010 2 17983002655473608425
3248919 1 17894908538025756539
4990 188 17275107210962172389
7364860 26 18058723598933388946
8030462 33 18412548682317958659

> <PUBCHEM_SHAPE_MULTIPOLES>
249.41
5.84
1.36
1.3
1.64
0.15
0.38
0.65
1.23
-0.13
-0.11
-1.24
-0.4
0.83

> <PUBCHEM_SHAPE_SELFOVERLAP>
511.143

> <PUBCHEM_SHAPE_VOLUME>
145.4

> <PUBCHEM_COORDINATE_TYPE>
2
5
10

$$$$
52940
  -OEChem-12271619543D

 40 42  0     1  0  0  0  0  0999 V2000
   -1.0605    2.7785   -0.4934 O   0  0  0  0  0  0  0  0  0  0  0  0
    0.3898    2.0614    1.1555 O   0  0  0  0  0  0  0  0  0  0  0  0
   -2.3499   -1.1042   -0.9620 N   0  0  1  0  0  0  0  0  0  0  0  0
   -2.1605    0.2054   -0.3074 C   0  0  2  0  0  0  0  0  0  0  0  0
   -1.9336   -2.0546    0.0854 C   0  0  1  0  0  0  0  0  0  0  0  0
   -0.6362    0.4794   -0.3475 C   0  0  2  0  0  0  0  0  0  0  0  0
    0.1756   -0.6077    0.4044 C   0  0  1  0  0  0  0  0  0  0  0  0
   -0.3915   -2.0227    0.1237 C   0  0  0  0  0  0  0  0  0  0  0  0
   -2.7029   -0.0054    1.1144 C   0  0  0  0  0  0  0  0  0  0  0  0
   -2.5472   -1.5037    1.3747 C   0  0  0  0  0  0  0  0  0  0  0  0
    1.6674   -0.5412    0.1160 C   0  0  0  0  0  0  0  0  0  0  0  0
   -3.7233   -1.3209   -1.4098 C   0  0  0  0  0  0  0  0  0  0  0  0
   -0.3577    1.8464    0.2111 C   0  0  0  0  0  0  0  0  0  0  0  0
    2.5806   -0.8319    1.1256 C   0  0  0  0  0  0  0  0  0  0  0  0
    2.1111   -0.1905   -1.1560 C   0  0  0  0  0  0  0  0  0  0  0  0
    3.9488   -0.7711    0.8613 C   0  0  0  0  0  0  0  0  0  0  0  0
    3.4794   -0.1299   -1.4203 C   0  0  0  0  0  0  0  0  0  0  0  0
    4.3981   -0.4201   -0.4117 C   0  0  0  0  0  0  0  0  0  0  0  0
   -0.8875    4.1328   -0.0642 C   0  0  0  0  0  0  0  0  0  0  0  0
   -2.7089    1.0002   -0.8261 H   0  0  0  0  0  0  0  0  0  0  0  0
   -2.2605   -3.0806   -0.1183 H   0  0  0  0  0  0  0  0  0  0  0  0
   -0.3652    0.5182   -1.4076 H   0  0  0  0  0  0  0  0  0  0  0  0
    0.0555   -0.4248    1.4824 H   0  0  0  0  0  0  0  0  0  0  0  0
   -0.0087   -2.3938   -0.8374 H   0  0  0  0  0  0  0  0  0  0  0  0
   -0.0253   -2.7209    0.8875 H   0  0  0  0  0  0  0  0  0  0  0  0
   -3.7649    0.2641    1.1635 H   0  0  0  0  0  0  0  0  0  0  0  0
   -2.1823    0.5928    1.8686 H   0  0  0  0  0  0  0  0  0  0  0  0
   -1.9301   -1.7028    2.2570 H   0  0  0  0  0  0  0  0  0  0  0  0
   -3.5333   -1.9477    1.5554 H   0  0  0  0  0  0  0  0  0  0  0  0
   -3.9876   -0.5861   -2.1782 H   0  0  0  0  0  0  0  0  0  0  0  0
   -4.4675   -1.2561   -0.6095 H   0  0  0  0  0  0  0  0  0  0  0  0
   -3.8138   -2.3081   -1.8763 H   0  0  0  0  0  0  0  0  0  0  0  0
    2.2432   -1.1088    2.1206 H   0  0  0  0  0  0  0  0  0  0  0  0
    1.4430    0.0015   -1.9866 H   0  0  0  0  0  0  0  0  0  0  0  0
    4.6643   -0.9982    1.6462 H   0  0  0  0  0  0  0  0  0  0  0  0
    3.8302    0.1333   -2.4139 H   0  0  0  0  0  0  0  0  0  0  0  0
    5.4634   -0.3754   -0.6183 H   0  0  0  0  0  0  0  0  0  0  0  0
   -1.4981    4.7735   -0.7059 H   0  0  0  0  0  0  0  0  0  0  0  0
    0.1605    4.4309   -0.1648 H   0  0  0  0  0  0  0  0  0  0  0  0
   -1.2250    4.2477    0.9703 H   0  0  0  0  0  0  0  0  0  0  0  0
  1 13  1  0  0  0  0
  1 19  1  0  0  0  0
  2 13  2  0  0  0  0
  3  4  1  0  0  0  0
  3  5  1  0  0  0  0
  3 12  1  0  0  0  0
  4  6  1  0  0  0  0
  4  9  1  0  0  0  0
  4 20  1  0  0  0  0
  5  8  1  0  0  0  0
  5 10  1  0  0  0  0
  5 21  1  0  0  0  0
  6  7  1  0  0  0  0
  6 13  1  0  0  0  0
  6 22  1  0  0  0  0
  7  8  1  0  0  0  0
  7 11  1  0  0  0  0
  7 23  1  0  0  0  0
  8 24  1  0  0  0  0
  8 25  1  0  0  0  0
  9 10  1  0  0  0  0
  9 26  1  0  0  0  0
  9 27  1  0  0  0  0
 10 28  1  0  0  0  0
 10 29  1  0  0  0  0
 11 14  2  0  0  0  0
 11 15  1  0  0  0  0
 12 30  1  0  0  0  0
 12 31  1  0  0  0  0
 12 32  1  0  0  0  0
 14 16  1  0  0  0  0
 14 33  1  0  0  0  0
 15 17  2  0  0  0  0
 15 34  1  0  0  0  0
 16 18  2  0  0  0  0
 16 35  1  0  0  0  0
 17 18  1  0  0  0  0
 17 36  1  0  0  0  0
 18 37  1  0  0  0  0
 19 38  1  0  0  0  0
 19 39  1  0  0  0  0
 19 40  1  0  0  0  0
M  END
> <PUBCHEM_COMPOUND_CID>
52940

> <PUBCHEM_CONFORMER_RMSD>
0.6

> <PUBCHEM_CONFORMER_DIVERSEORDER>
1
32
44
42
36
26
35
2
40
29
20
31
24
15
45
34
43
18
22
11
3
14
27
39
23
30
33
5
37
21
13
41
16
25
28
38
10
19
7
17
8
9
12
6
4

> <PUBCHEM_MMFF94_PARTIAL_CHARGES>
21
1 -0.43
11 -0.14
12 0.27
13 0.66
14 -0.15
15 -0.15
16 -0.15
17 -0.15
18 -0.15
19 0.28
2 -0.57
3 -0.81
33 0.15
34 0.15
35 0.15
36 0.15
37 0.15
4 0.27
5 0.27
6 0.06
7 0.14

> <PUBCHEM_EFFECTIVE_ROTOR_COUNT>
4.2

> <PUBCHEM_PHARMACOPHORE_FEATURES>
4
1 2 acceptor
1 3 cation
6 11 14 15 16 17 18 rings
8 3 4 5 6 7 8 9 10 rings

> <PUBCHEM_HEAVY_ATOM_COUNT>
19

> <PUBCHEM_ATOM_DEF_STEREO_COUNT>
0

> <PUBCHEM_ATOM_UDEF_STEREO_COUNT>
4

> <PUBCHEM_BOND_DEF_STEREO_COUNT>
0

> <PUBCHEM_BOND_UDEF_STEREO_COUNT>
0

> <PUBCHEM_ISOTOPIC_ATOM_COUNT>
0

> <PUBCHEM_COMPONENT_COUNT>
1

> <PUBCHEM_CACTVS_TAUTO_COUNT>
1

> <PUBCHEM_CONFORMER_ID>
0000CECC00000001

> <PUBCHEM_MMFF94_ENERGY>
52.9912

> <PUBCHEM_FEATURE_SELFOVERLAP>
20.297

> <PUBCHEM_SHAPE_FINGERPRINT>
104564 63 18337394829229274529
10863032 1 15792004584758289723
10989021 7 18200026386319671541
11132069 177 18131072614791137010
11578080 2 17678993101931505988
11680986 33 17980191216968401795
12553582 1 18409737282720483354
12788726 201 18337393721144004165
13027679 85 18335147548043016001
13140716 1 18410580603912735297
133893 2 17908149024762182137
13681431 1 18126566957790321377
14181834 199 17699275874322035853
14614273 12 18194126222051709629
15375462 189 18041575735502508346
15906896 17 18120377557956145081
16752209 62 18335976463682757270
16945 1 18335423452135998310
17134986 127 17472425344128614012
17357779 13 18130488804181669677
1813 80 18200325423391398951
18186145 218 17530972410094197182
18927931 339 18411986836873090358
19868273 325 18413110579957010566
200 152 18040710381381573286
20361792 2 18341613775609507695
20510252 161 18340209583544530224
20600515 1 18127711493850074110
20671657 53 18270105950597501743
21041028 32 18266478644694834233
21339142 126 18340770338431987951
21524375 3 17615966604108989257
22112679 90 18269016295539868245
22182313 1 17391899745874105663
2334 1 18267585903905359865
23402539 116 18413387623012866166
23419403 2 17056917975989010201
23557571 272 18201999894228656888
23558518 356 17902789665617401323
23559900 14 18340761569042615122
2748010 2 18267572684191195041
3286 77 16487251110291774922
350125 39 17690577289857965995
7364860 26 17765158654045106369
77492 1 17894353254995192226
81228 2 18341058410494562593
90316 7 18410297999264433224

> <PUBCHEM_SHAPE_MULTIPOLES>
374.29
6.3
3.06
1.31
5.02
4.43
-0.07
-3.13
-0.96
-2.27
0.18
-0.07
-0.3
-0.31

> <PUBCHEM_SHAPE_SELFOVERLAP>
800.476

> <PUBCHEM_SHAPE_VOLUME>
207.9

> <PUBCHEM_COORDINATE_TYPE>
2
5
10

$$$$
53249194
  -OEChem-12271619063D

 28 28  0     1  0  0  0  0  0999 V2000
   -0.9545   -0.5195   -1.8231 O   0  0  0  0  0  0  0  0  0  0  0  0
   -2.5122   -1.2337    0.4906 N   0  0  0  0  0  0  0  0  0  0  0  0
   -1.7749    0.0238    0.3809 C   0  0  2  0  0  0  0  0  0  0  0  0
   -2.7354    1.1411   -0.0521 C   0  0  0  0  0  0  0  0  0  0  0  0
   -0.6871   -0.2096   -0.6629 C   0  0  0  0  0  0  0  0  0  0  0  0
    0.7419   -0.0580   -0.2751 C   0  0  0  0  0  0  0  0  0  0  0  0
   -2.0325    2.4864   -0.1881 C   0  0  0  0  0  0  0  0  0  0  0  0
   -1.7893   -2.1847    1.3210 C   0  0  0  0  0  0  0  0  0  0  0  0
    1.1008    0.8410    0.7292 C   0  0  0  0  0  0  0  0  0  0  0  0
    1.7220   -0.8161   -0.9154 C   0  0  0  0  0  0  0  0  0  0  0  0
    2.4400    0.9816    1.0934 C   0  0  0  0  0  0  0  0  0  0  0  0
    3.0611   -0.6756   -0.5514 C   0  0  0  0  0  0  0  0  0  0  0  0
    3.4201    0.2234    0.4530 C   0  0  0  0  0  0  0  0  0  0  0  0
   -1.3694    0.2898    1.3609 H   0  0  0  0  0  0  0  0  0  0  0  0
   -3.5453    1.2425    0.6813 H   0  0  0  0  0  0  0  0  0  0  0  0
   -3.2039    0.8951   -1.0138 H   0  0  0  0  0  0  0  0  0  0  0  0
   -3.4215   -1.0610    0.9193 H   0  0  0  0  0  0  0  0  0  0  0  0
   -1.5823    2.7923    0.7610 H   0  0  0  0  0  0  0  0  0  0  0  0
   -2.7561    3.2562   -0.4759 H   0  0  0  0  0  0  0  0  0  0  0  0
   -1.2532    2.4628   -0.9555 H   0  0  0  0  0  0  0  0  0  0  0  0
   -0.8234   -2.4607    0.8870 H   0  0  0  0  0  0  0  0  0  0  0  0
   -2.3756   -3.1056    1.4042 H   0  0  0  0  0  0  0  0  0  0  0  0
   -1.6318   -1.8027    2.3352 H   0  0  0  0  0  0  0  0  0  0  0  0
    0.3755    1.4680    1.2354 H   0  0  0  0  0  0  0  0  0  0  0  0
    1.4607   -1.5252   -1.6965 H   0  0  0  0  0  0  0  0  0  0  0  0
    2.7208    1.6856    1.8714 H   0  0  0  0  0  0  0  0  0  0  0  0
    3.8243   -1.2666   -1.0492 H   0  0  0  0  0  0  0  0  0  0  0  0
    4.4630    0.3337    0.7357 H   0  0  0  0  0  0  0  0  0  0  0  0
  1  5  2  0  0  0  0
  2  3  1  0  0  0  0
  2  8  1  0  0  0  0
  2 17  1  0  0  0  0
  3  4  1  0  0  0  0
  3  5  1  0  0  0  0
  3 14  1  0  0  0  0
  4  7  1  0  0  0  0
  4 15  1  0  0  0  0
  4 16  1  0  0  0  0
  5  6  1  0  0  0  0
  6  9  2  0  0  0  0
  6 10  1  0  0  0  0
  7 18  1  0  0  0  0
  7 19  1  0  0  0  0
  7 20  1  0  0  0  0
  8 21  1  0  0  0  0
  8 22  1  0  0  0  0
  8 23  1  0  0  0  0
  9 11  1  0  0  0  0
  9 24  1  0  0  0  0
 10 12  2  0  0  0  0
 10 25  1  0  0  0  0
 11 13  2  0  0  0  0
 11 26  1  0  0  0  0
 12 13  1  0  0  0  0
 12 27  1  0  0  0  0
 13 28  1  0  0  0  0
M  END
> <PUBCHEM_COMPOUND_CID>
53249194

> <PUBCHEM_CONFORMER_RMSD>
0.6

> <PUBCHEM_CONFORMER_DIVERSEORDER>
2
37
8
39
25
35
34
50
48
18
17
7
16
45
14
22
36
28
41
10
43
49
21
4
46
19
42
30
32
47
3
29
33
40
27
26
13
20
1
31
15
23
44
24
11
12
6
38
5
9

> <PUBCHEM_MMFF94_PARTIAL_CHARGES>
17
1 -0.57
10 -0.15
11 -0.15
12 -0.15
13 -0.15
17 0.36
2 -0.9
24 0.15
25 0.15
26 0.15
27 0.15
28 0.15
3 0.33
5 0.42
6 0.09
8 0.27
9 -0.15

> <PUBCHEM_EFFECTIVE_ROTOR_COUNT>
4

> <PUBCHEM_PHARMACOPHORE_FEATURES>
5
1 1 acceptor
1 2 cation
1 2 donor
1 7 hydrophobe
6 6 9 10 11 12 13 rings

> <PUBCHEM_HEAVY_ATOM_COUNT>
13

> <PUBCHEM_ATOM_DEF_STEREO_COUNT>
0

> <PUBCHEM_ATOM_UDEF_STEREO_COUNT>
1

> <PUBCHEM_BOND_DEF_STEREO_COUNT>
0

> <PUBCHEM_BOND_UDEF_STEREO_COUNT>
0

> <PUBCHEM_ISOTOPIC_ATOM_COUNT>
0

> <PUBCHEM_COMPONENT_COUNT>
1

> <PUBCHEM_CACTVS_TAUTO_COUNT>
2

> <PUBCHEM_CONFORMER_ID>
032C84AA00000002

> <PUBCHEM_MMFF94_ENERGY>
27.5246

> <PUBCHEM_FEATURE_SELFOVERLAP>
25.371

> <PUBCHEM_SHAPE_FINGERPRINT>
10608611 8 18272083885879342856
11471102 22 18130795615381533866
124424 183 18200307706962428694
12500047 106 18261392187571087090
12716758 59 18336271128371976995
12932764 1 17775003531142124172
13294875 104 17474084528459879849
15653759 3 18412549811973407424
15775835 57 17274820306756513176
16945 1 18261403221225954565
17844478 74 18342464788987660784
19049666 15 18269283356590476810
20361792 2 15936690479398211703
20653085 51 17774997921804371045
20715346 28 18131073735883018260
21524375 3 17980757143497877941
23402539 116 18410003335144646661
23493267 7 18338242553095119240
25 1 17697600996138630961
2748010 2 17988925548497900412
305870 269 17755295674193627657
3248919 1 18260822717978539038
63268167 104 17203605991171926690
81228 2 18334021618229541177
8809292 202 18340212877689377234

> <PUBCHEM_SHAPE_MULTIPOLES>
256.68
5.06
1.92
1.25
2.05
0.19
-0.16
0.48
0.62
-1.85
0.5
0.04
-0.34
1

> <PUBCHEM_SHAPE_SELFOVERLAP>
519.231

> <PUBCHEM_SHAPE_VOLUME>
150.4

> <PUBCHEM_COORDINATE_TYPE>
2
5
10

$$$$
53415330
  -OEChem-12271618473D

 25 25  0     1  0  0  0  0  0999 V2000
    2.9486   -2.0571    0.0015 F   0  0  0  0  0  0  0  0  0  0  0  0
   -1.6023    1.5370    1.0409 O   0  0  0  0  0  0  0  0  0  0  0  0
   -3.0220   -0.1927   -0.8360 N   0  0  0  0  0  0  0  0  0  0  0  0
   -2.0545   -0.6618    0.1579 C   0  0  1  0  0  0  0  0  0  0  0  0
   -1.1166    0.5108    0.5188 C   0  0  0  0  0  0  0  0  0  0  0  0
    0.3095    0.4357    0.2435 C   0  0  0  0  0  0  0  0  0  0  0  0
   -2.7923   -1.1509    1.3973 C   0  0  0  0  0  0  0  0  0  0  0  0
    0.9580   -0.7993    0.2551 C   0  0  0  0  0  0  0  0  0  0  0  0
    1.0289    1.5987   -0.0313 C   0  0  0  0  0  0  0  0  0  0  0  0
   -2.4255   -0.1678   -2.1616 C   0  0  0  0  0  0  0  0  0  0  0  0
    2.3260   -0.8713   -0.0083 C   0  0  0  0  0  0  0  0  0  0  0  0
    2.3969    1.5268   -0.2945 C   0  0  0  0  0  0  0  0  0  0  0  0
    3.0454    0.2918   -0.2832 C   0  0  0  0  0  0  0  0  0  0  0  0
   -1.5051   -1.5148   -0.2488 H   0  0  0  0  0  0  0  0  0  0  0  0
   -3.4149   -0.3637    1.8381 H   0  0  0  0  0  0  0  0  0  0  0  0
   -3.4393   -2.0036    1.1636 H   0  0  0  0  0  0  0  0  0  0  0  0
   -2.0802   -1.4701    2.1664 H   0  0  0  0  0  0  0  0  0  0  0  0
   -3.8234   -0.8235   -0.8562 H   0  0  0  0  0  0  0  0  0  0  0  0
    0.4418   -1.7226    0.4977 H   0  0  0  0  0  0  0  0  0  0  0  0
    0.5408    2.5697   -0.0497 H   0  0  0  0  0  0  0  0  0  0  0  0
   -1.5862    0.5321   -2.2204 H   0  0  0  0  0  0  0  0  0  0  0  0
   -3.1738    0.1691   -2.8862 H   0  0  0  0  0  0  0  0  0  0  0  0
   -2.0874   -1.1611   -2.4753 H   0  0  0  0  0  0  0  0  0  0  0  0
    2.9571    2.4321   -0.5096 H   0  0  0  0  0  0  0  0  0  0  0  0
    4.1103    0.2354   -0.4887 H   0  0  0  0  0  0  0  0  0  0  0  0
  1 11  1  0  0  0  0
  2  5  2  0  0  0  0
  3  4  1  0  0  0  0
  3 10  1  0  0  0  0
  3 18  1  0  0  0  0
  4  5  1  0  0  0  0
  4  7  1  0  0  0  0
  4 14  1  0  0  0  0
  5  6  1  0  0  0  0
  6  8  2  0  0  0  0
  6  9  1  0  0  0  0
  7 15  1  0  0  0  0
  7 16  1  0  0  0  0
  7 17  1  0  0  0  0
  8 11  1  0  0  0  0
  8 19  1  0  0  0  0
  9 12  2  0  0  0  0
  9 20  1  0  0  0  0
 10 21  1  0  0  0  0
 10 22  1  0  0  0  0
 10 23  1  0  0  0  0
 11 13  2  0  0  0  0
 12 13  1  0  0  0  0
 12 24  1  0  0  0  0
 13 25  1  0  0  0  0
M  END
> <PUBCHEM_COMPOUND_CID>
53415330

> <PUBCHEM_CONFORMER_RMSD>
0.6

> <PUBCHEM_CONFORMER_DIVERSEORDER>
1
54
27
31
29
26
49
9
19
8
35
32
44
52
50
20
41
47
45
37
40
10
30
17
22
11
5
46
28
2
53
43
7
36
39
21
33
48
18
25
15
12
3
42
23
13
6
34
51
4
24
14
38
16

> <PUBCHEM_MMFF94_PARTIAL_CHARGES>
17
1 -0.19
10 0.27
11 0.19
12 -0.15
13 -0.15
18 0.36
19 0.15
2 -0.57
20 0.15
24 0.15
25 0.15
3 -0.9
4 0.33
5 0.42
6 0.09
8 -0.15
9 -0.15

> <PUBCHEM_EFFECTIVE_ROTOR_COUNT>
3

> <PUBCHEM_PHARMACOPHORE_FEATURES>
4
1 2 acceptor
1 3 cation
1 3 donor
6 6 8 9 11 12 13 rings

> <PUBCHEM_HEAVY_ATOM_COUNT>
13

> <PUBCHEM_ATOM_DEF_STEREO_COUNT>
0

> <PUBCHEM_ATOM_UDEF_STEREO_COUNT>
1

> <PUBCHEM_BOND_DEF_STEREO_COUNT>
0

> <PUBCHEM_BOND_UDEF_STEREO_COUNT>
0

> <PUBCHEM_ISOTOPIC_ATOM_COUNT>
0

> <PUBCHEM_COMPONENT_COUNT>
1

> <PUBCHEM_CACTVS_TAUTO_COUNT>
2

> <PUBCHEM_CONFORMER_ID>
032F0DA200000001

> <PUBCHEM_MMFF94_ENERGY>
28.7317

> <PUBCHEM_FEATURE_SELFOVERLAP>
20.297

> <PUBCHEM_SHAPE_FINGERPRINT>
12897270 3 18335702788145090584
12932764 1 17560806545316254472
13764800 53 13912610403304633957
15219456 202 18041278867389161281
15279308 51 18057044597131908716
15906896 17 17986400997002575105
16945 1 18269838764850241336
17844478 74 17749961092952151683
18186145 218 17748824090169733395
18522851 268 17677330657419128279
20201158 50 18333730247115547402
20361792 2 17560229344993660781
20645477 70 18410854356527795487
20653085 51 17168140114062933021
22802520 49 17968085413478717157
23552423 10 18336276673322507592
23557571 272 17023184980528337485
2748010 2 18260552246570975018
3248919 1 18407757036540554280
5084963 1 17531820158859160584
77492 1 17704076226166934903
8030462 33 18343024401814997832

> <PUBCHEM_SHAPE_MULTIPOLES>
249.41
5.23
1.66
1.29
0.11
0.18
-0.57
1.11
-0.78
-1.02
0.25
1.57
-0.07
0.33

> <PUBCHEM_SHAPE_SELFOVERLAP>
511.173

> <PUBCHEM_SHAPE_VOLUME>
145.1

> <PUBCHEM_COORDINATE_TYPE>
2
5
10

$$$$
54673723
  -OEChem-12271619573D

 28 29  0     1  0  0  0  0  0999 V2000
   -3.2512    1.9404   -0.3939 F   0  0  0  0  0  0  0  0  0  0  0  0
    1.4001    0.8014    1.0461 O   0  0  0  0  0  0  0  0  0  0  0  0
    3.1489   -0.7268   -0.6064 N   0  0  0  0  0  0  0  0  0  0  0  0
    1.6960   -0.6937   -0.8633 C   0  0  1  0  0  0  0  0  0  0  0  0
    0.9427   -0.4260    0.4605 C   0  0  2  0  0  0  0  0  0  0  0  0
    3.6049    0.4823    0.0867 C   0  0  0  0  0  0  0  0  0  0  0  0
    2.7939    0.7347    1.3507 C   0  0  0  0  0  0  0  0  0  0  0  0
   -0.5655   -0.4144    0.2983 C   0  0  0  0  0  0  0  0  0  0  0  0
    1.3793    0.3106   -1.9793 C   0  0  0  0  0  0  0  0  0  0  0  0
   -1.2281    0.7812    0.0207 C   0  0  0  0  0  0  0  0  0  0  0  0
   -1.2898   -1.5996    0.4276 C   0  0  0  0  0  0  0  0  0  0  0  0
   -2.6150    0.7919   -0.1280 C   0  0  0  0  0  0  0  0  0  0  0  0
   -2.6768   -1.5889    0.2792 C   0  0  0  0  0  0  0  0  0  0  0  0
   -3.3394   -0.3932    0.0012 C   0  0  0  0  0  0  0  0  0  0  0  0
    1.4123   -1.6877   -1.2317 H   0  0  0  0  0  0  0  0  0  0  0  0
    1.1792   -1.2262    1.1776 H   0  0  0  0  0  0  0  0  0  0  0  0
    3.6567   -0.8290   -1.4844 H   0  0  0  0  0  0  0  0  0  0  0  0
    3.5327    1.3456   -0.5843 H   0  0  0  0  0  0  0  0  0  0  0  0
    4.6621    0.3673    0.3481 H   0  0  0  0  0  0  0  0  0  0  0  0
    2.9671   -0.0443    2.1030 H   0  0  0  0  0  0  0  0  0  0  0  0
    3.0840    1.6920    1.7953 H   0  0  0  0  0  0  0  0  0  0  0  0
    1.4964    1.3498   -1.6562 H   0  0  0  0  0  0  0  0  0  0  0  0
    0.3522    0.1837   -2.3367 H   0  0  0  0  0  0  0  0  0  0  0  0
    2.0314    0.1511   -2.8459 H   0  0  0  0  0  0  0  0  0  0  0  0
   -0.6853    1.7159   -0.0893 H   0  0  0  0  0  0  0  0  0  0  0  0
   -0.7852   -2.5379    0.6415 H   0  0  0  0  0  0  0  0  0  0  0  0
   -3.2408   -2.5116    0.3794 H   0  0  0  0  0  0  0  0  0  0  0  0
   -4.4192   -0.3847   -0.1146 H   0  0  0  0  0  0  0  0  0  0  0  0
  1 12  1  0  0  0  0
  2  5  1  0  0  0  0
  2  7  1  0  0  0  0
  3  4  1  0  0  0  0
  3  6  1  0  0  0  0
  3 17  1  0  0  0  0
  4  5  1  0  0  0  0
  4  9  1  0  0  0  0
  4 15  1  0  0  0  0
  5  8  1  0  0  0  0
  5 16  1  0  0  0  0
  6  7  1  0  0  0  0
  6 18  1  0  0  0  0
  6 19  1  0  0  0  0
  7 20  1  0  0  0  0
  7 21  1  0  0  0  0
  8 10  2  0  0  0  0
  8 11  1  0  0  0  0
  9 22  1  0  0  0  0
  9 23  1  0  0  0  0
  9 24  1  0  0  0  0
 10 12  1  0  0  0  0
 10 25  1  0  0  0  0
 11 13  2  0  0  0  0
 11 26  1  0  0  0  0
 12 14  2  0  0  0  0
 13 14  1  0  0  0  0
 13 27  1  0  0  0  0
 14 28  1  0  0  0  0
M  END
> <PUBCHEM_COMPOUND_CID>
54673723

> <PUBCHEM_CONFORMER_RMSD>
0.6

> <PUBCHEM_CONFORMER_DIVERSEORDER>
1
21
11
9
20
13
16
4
17
12
19
10
14
15
5
7
3
18
6
2
8

> <PUBCHEM_MMFF94_PARTIAL_CHARGES>
18
1 -0.19
10 -0.15
11 -0.15
12 0.19
13 -0.15
14 -0.15
17 0.36
2 -0.56
25 0.15
26 0.15
27 0.15
28 0.15
3 -0.9
4 0.27
5 0.42
6 0.27
7 0.28
8 -0.14

> <PUBCHEM_EFFECTIVE_ROTOR_COUNT>
2.2

> <PUBCHEM_PHARMACOPHORE_FEATURES>
5
1 2 acceptor
1 3 cation
1 3 donor
6 2 3 4 5 6 7 rings
6 8 10 11 12 13 14 rings

> <PUBCHEM_HEAVY_ATOM_COUNT>
14

> <PUBCHEM_ATOM_DEF_STEREO_COUNT>
0

> <PUBCHEM_ATOM_UDEF_STEREO_COUNT>
2

> <PUBCHEM_BOND_DEF_STEREO_COUNT>
0

> <PUBCHEM_BOND_UDEF_STEREO_COUNT>
0

> <PUBCHEM_ISOTOPIC_ATOM_COUNT>
0

> <PUBCHEM_COMPONENT_COUNT>
1

> <PUBCHEM_CACTVS_TAUTO_COUNT>
1

> <PUBCHEM_CONFORMER_ID>
0342413B00000001

> <PUBCHEM_MMFF94_ENERGY>
26.9182

> <PUBCHEM_FEATURE_SELFOVERLAP>
25.371

> <PUBCHEM_SHAPE_FINGERPRINT>
10219947 1 16559037090692485590
10608611 8 18343577468969621552
107287 299 17346323755703188248
12138202 97 18272362079490158655
124424 183 18201998790179442650
12500047 106 18409444756692647870
12716758 59 18410296891352872259
12932764 1 18201725067244401791
13296908 3 18060707190549450150
13538477 17 17313953042491710747
13581323 91 18260829336328171131
13839132 238 18411975832486057925
14144814 61 16805320006890385090
14993402 34 16877940563993625922
15219456 202 18131631205315751706
15279308 16 18131061653929226192
15775835 57 18187363177795642553
16945 1 18261113014950184739
17357990 137 17313676965972126676
18175812 5 18059573632873992404
18186145 218 18130232562026851617
19049666 15 18129388111311221523
19786989 88 16916790737729325630
200 152 16128654141571858651
20201158 50 17918279735631850726
20279233 1 18202283614861431035
20645464 45 18202284719000283675
20645476 183 17313100886831695899
20645477 56 18409450263220613857
20645477 70 17203049590764161326
21639500 275 16343410817165218928
22802520 49 18059022665805499873
23402539 116 18339630209382889965
23557571 272 18271534173035843477
23559900 14 18270120107258180102
2748010 2 18201721772977774211
3248919 1 17385445435807632387
474 4 16299807557852661364
57812782 119 18272086114882615994
6333449 129 18413106169431695011
69090 78 18059850692920079375
74978 22 16443634613293405170
77492 1 17095521811696144562
81228 2 18263931102102156795

> <PUBCHEM_SHAPE_MULTIPOLES>
269.99
6.01
1.46
1.22
0.24
0.07
-0.36
0.71
0.22
-1.26
0.03
1.03
0.16
0.62

> <PUBCHEM_SHAPE_SELFOVERLAP>
564.45

> <PUBCHEM_SHAPE_VOLUME>
152.8

> <PUBCHEM_COORDINATE_TYPE>
2
5
10

$$$$
56603536
  -OEChem-12271618413D

 28 28  0     1  0  0  0  0  0999 V2000
    1.1711    0.9159   -1.4126 O   0  0  0  0  0  0  0  0  0  0  0  0
    3.1898   -0.2622   -0.0119 N   0  0  0  0  0  0  0  0  0  0  0  0
    1.9258   -0.0106    0.6829 C   0  0  2  0  0  0  0  0  0  0  0  0
    0.8453    0.3084   -0.3716 C   0  0  0  0  0  0  0  0  0  0  0  0
   -0.5427   -0.0768   -0.1551 C   0  0  0  0  0  0  0  0  0  0  0  0
   -1.5586    0.8782   -0.1159 C   0  0  0  0  0  0  0  0  0  0  0  0
    2.0939    1.1621    1.6402 C   0  0  0  0  0  0  0  0  0  0  0  0
   -0.8480   -1.4272    0.0143 C   0  0  0  0  0  0  0  0  0  0  0  0
   -2.8799    0.4827    0.0926 C   0  0  0  0  0  0  0  0  0  0  0  0
   -1.2597    2.3310   -0.2944 C   0  0  0  0  0  0  0  0  0  0  0  0
   -2.1694   -1.8226    0.2229 C   0  0  0  0  0  0  0  0  0  0  0  0
    3.2179   -1.6112   -0.5536 C   0  0  0  0  0  0  0  0  0  0  0  0
   -3.1853   -0.8678    0.2621 C   0  0  0  0  0  0  0  0  0  0  0  0
    1.6285   -0.8856    1.2726 H   0  0  0  0  0  0  0  0  0  0  0  0
    2.3784    2.0779    1.1091 H   0  0  0  0  0  0  0  0  0  0  0  0
    1.1538    1.3704    2.1630 H   0  0  0  0  0  0  0  0  0  0  0  0
    2.8579    0.9527    2.3968 H   0  0  0  0  0  0  0  0  0  0  0  0
    3.9653   -0.1634    0.6434 H   0  0  0  0  0  0  0  0  0  0  0  0
   -0.0699   -2.1852   -0.0205 H   0  0  0  0  0  0  0  0  0  0  0  0
   -3.6837    1.2135    0.1244 H   0  0  0  0  0  0  0  0  0  0  0  0
   -0.4428    2.6489    0.3616 H   0  0  0  0  0  0  0  0  0  0  0  0
   -0.9953    2.5420   -1.3354 H   0  0  0  0  0  0  0  0  0  0  0  0
   -2.1250    2.9539   -0.0413 H   0  0  0  0  0  0  0  0  0  0  0  0
    2.4270   -1.7726   -1.2929 H   0  0  0  0  0  0  0  0  0  0  0  0
    3.1305   -2.3667    0.2345 H   0  0  0  0  0  0  0  0  0  0  0  0
    4.1726   -1.7750   -1.0635 H   0  0  0  0  0  0  0  0  0  0  0  0
   -2.4074   -2.8743    0.3532 H   0  0  0  0  0  0  0  0  0  0  0  0
   -4.2141   -1.1760    0.4238 H   0  0  0  0  0  0  0  0  0  0  0  0
  1  4  2  0  0  0  0
  2  3  1  0  0  0  0
  2 12  1  0  0  0  0
  2 18  1  0  0  0  0
  3  4  1  0  0  0  0
  3  7  1  0  0  0  0
  3 14  1  0  0  0  0
  4  5  1  0  0  0  0
  5  6  1  0  0  0  0
  5  8  2  0  0  0  0
  6  9  2  0  0  0  0
  6 10  1  0  0  0  0
  7 15  1  0  0  0  0
  7 16  1  0  0  0  0
  7 17  1  0  0  0  0
  8 11  1  0  0  0  0
  8 19  1  0  0  0  0
  9 13  1  0  0  0  0
  9 20  1  0  0  0  0
 10 21  1  0  0  0  0
 10 22  1  0  0  0  0
 10 23  1  0  0  0  0
 11 13  2  0  0  0  0
 11 27  1  0  0  0  0
 12 24  1  0  0  0  0
 12 25  1  0  0  0  0
 12 26  1  0  0  0  0
 13 28  1  0  0  0  0
M  END
> <PUBCHEM_COMPOUND_CID>
56603536

> <PUBCHEM_CONFORMER_RMSD>
0.6

> <PUBCHEM_CONFORMER_DIVERSEORDER>
1
3
26
14
11
15
18
27
30
4
19
32
34
16
2
13
36
31
9
8
23
20
29
28
10
17
6
35
25
12
24
33
7
21
22
5
37

> <PUBCHEM_MMFF94_PARTIAL_CHARGES>
17
1 -0.57
10 0.14
11 -0.15
12 0.27
13 -0.15
18 0.36
19 0.15
2 -0.9
20 0.15
27 0.15
28 0.15
3 0.33
4 0.42
5 0.09
6 -0.14
8 -0.15
9 -0.15

> <PUBCHEM_EFFECTIVE_ROTOR_COUNT>
3

> <PUBCHEM_PHARMACOPHORE_FEATURES>
4
1 1 acceptor
1 2 cation
1 2 donor
6 5 6 8 9 11 13 rings

> <PUBCHEM_HEAVY_ATOM_COUNT>
13

> <PUBCHEM_ATOM_DEF_STEREO_COUNT>
0

> <PUBCHEM_ATOM_UDEF_STEREO_COUNT>
1

> <PUBCHEM_BOND_DEF_STEREO_COUNT>
0

> <PUBCHEM_BOND_UDEF_STEREO_COUNT>
0

> <PUBCHEM_ISOTOPIC_ATOM_COUNT>
0

> <PUBCHEM_COMPONENT_COUNT>
1

> <PUBCHEM_CACTVS_TAUTO_COUNT>
2

> <PUBCHEM_CONFORMER_ID>
035FB39000000001

> <PUBCHEM_MMFF94_ENERGY>
33.5912

> <PUBCHEM_FEATURE_SELFOVERLAP>
20.297

> <PUBCHEM_SHAPE_FINGERPRINT>
10857977 72 18339355391906239873
12032990 46 18335990847818563899
124424 183 17845931806289422112
12716758 59 18339074896007986361
12932764 1 17775003539436724654
14993402 34 17821450127419025151
15076042 46 18408608049929419157
15219456 202 18130781291602109856
16945 1 18261662697480395417
17804303 29 18341055116460400654
17841504 4 17918270948423896194
19049666 15 18129092317245725624
20361792 2 16805310107170096382
20510252 161 18340768152510308705
20559304 39 18046915050061285599
20715346 28 18341038688036173336
20871998 184 18342178881837030271
23402539 116 18271799108663073319
23419403 2 16890835786688103653
23552423 10 18041000699511083247
23559900 14 18412539886915941848
2748010 2 18338231669468701439
31174 14 17774717683456202777
3286 77 17561079215799704379
369184 2 17775280599334793435
5084963 1 18410580560873027393
57812782 119 18201994408885474355
7364860 26 18193001636716336532
8030462 33 15357689777956564108
81228 2 18335413574048951193

> <PUBCHEM_SHAPE_MULTIPOLES>
256.68
5.09
1.99
1.02
1.37
0.18
0.14
-1.6
0.39
-0.51
-0.07
0.66
0.32
0.72

> <PUBCHEM_SHAPE_SELFOVERLAP>
523.67

> <PUBCHEM_SHAPE_VOLUME>
150.8

> <PUBCHEM_COORDINATE_TYPE>
2
5
10

$$$$
57486975
  -OEChem-12271619303D

 38 39  0     1  0  0  0  0  0999 V2000
   -0.4380    0.6843    2.0608 O   0  0  0  0  0  0  0  0  0  0  0  0
   -2.3468   -0.1877    0.0973 N   0  0  0  0  0  0  0  0  0  0  0  0
   -3.4692   -0.0947   -0.8358 C   0  0  0  0  0  0  0  0  0  0  0  0
   -1.8719   -1.5663   -0.0160 C   0  0  0  0  0  0  0  0  0  0  0  0
   -1.3029    0.7849   -0.1905 C   0  0  1  0  0  0  0  0  0  0  0  0
   -3.1640   -2.3683   -0.0643 C   0  0  0  0  0  0  0  0  0  0  0  0
   -4.2129   -1.4022   -0.6064 C   0  0  0  0  0  0  0  0  0  0  0  0
   -1.8838    2.2038   -0.1015 C   0  0  0  0  0  0  0  0  0  0  0  0
   -0.2159    0.5633    0.8568 C   0  0  0  0  0  0  0  0  0  0  0  0
   -0.8390    3.2746   -0.3919 C   0  0  0  0  0  0  0  0  0  0  0  0
    1.1556    0.1873    0.4177 C   0  0  0  0  0  0  0  0  0  0  0  0
    1.6361    0.6207   -0.8181 C   0  0  0  0  0  0  0  0  0  0  0  0
    1.9604   -0.5991    1.2420 C   0  0  0  0  0  0  0  0  0  0  0  0
    2.9212    0.2675   -1.2296 C   0  0  0  0  0  0  0  0  0  0  0  0
    3.2455   -0.9524    0.8305 C   0  0  0  0  0  0  0  0  0  0  0  0
    3.7258   -0.5191   -0.4052 C   0  0  0  0  0  0  0  0  0  0  0  0
    5.0999   -0.8966   -0.8457 C   0  0  0  0  0  0  0  0  0  0  0  0
   -1.3037   -1.7299   -0.9409 H   0  0  0  0  0  0  0  0  0  0  0  0
   -1.2585   -1.8834    0.8333 H   0  0  0  0  0  0  0  0  0  0  0  0
   -4.1349    0.7487   -0.6284 H   0  0  0  0  0  0  0  0  0  0  0  0
   -3.1346   -0.0378   -1.8796 H   0  0  0  0  0  0  0  0  0  0  0  0
   -0.9254    0.6185   -1.2039 H   0  0  0  0  0  0  0  0  0  0  0  0
   -4.6659   -1.7736   -1.5313 H   0  0  0  0  0  0  0  0  0  0  0  0
   -5.0134   -1.2727    0.1316 H   0  0  0  0  0  0  0  0  0  0  0  0
   -3.4528   -2.7034    0.9389 H   0  0  0  0  0  0  0  0  0  0  0  0
   -3.0631   -3.2549   -0.6985 H   0  0  0  0  0  0  0  0  0  0  0  0
   -2.3053    2.3881    0.8949 H   0  0  0  0  0  0  0  0  0  0  0  0
   -2.6908    2.3516   -0.8272 H   0  0  0  0  0  0  0  0  0  0  0  0
   -0.0201    3.2511    0.3331 H   0  0  0  0  0  0  0  0  0  0  0  0
   -1.2983    4.2672   -0.3381 H   0  0  0  0  0  0  0  0  0  0  0  0
   -0.4225    3.1555   -1.3967 H   0  0  0  0  0  0  0  0  0  0  0  0
    1.0559    1.2553   -1.4786 H   0  0  0  0  0  0  0  0  0  0  0  0
    1.6012   -0.9500    2.2058 H   0  0  0  0  0  0  0  0  0  0  0  0
    3.2876    0.6173   -2.1912 H   0  0  0  0  0  0  0  0  0  0  0  0
    3.8632   -1.5651    1.4818 H   0  0  0  0  0  0  0  0  0  0  0  0
    5.8202   -0.1403   -0.5183 H   0  0  0  0  0  0  0  0  0  0  0  0
    5.3958   -1.8660   -0.4305 H   0  0  0  0  0  0  0  0  0  0  0  0
    5.1548   -0.9853   -1.9360 H   0  0  0  0  0  0  0  0  0  0  0  0
  1  9  2  0  0  0  0
  2  3  1  0  0  0  0
  2  4  1  0  0  0  0
  2  5  1  0  0  0  0
  3  7  1  0  0  0  0
  3 20  1  0  0  0  0
  3 21  1  0  0  0  0
  4  6  1  0  0  0  0
  4 18  1  0  0  0  0
  4 19  1  0  0  0  0
  5  8  1  0  0  0  0
  5  9  1  0  0  0  0
  5 22  1  0  0  0  0
  6  7  1  0  0  0  0
  6 25  1  0  0  0  0
  6 26  1  0  0  0  0
  7 23  1  0  0  0  0
  7 24  1  0  0  0  0
  8 10  1  0  0  0  0
  8 27  1  0  0  0  0
  8 28  1  0  0  0  0
  9 11  1  0  0  0  0
 10 29  1  0  0  0  0
 10 30  1  0  0  0  0
 10 31  1  0  0  0  0
 11 12  2  0  0  0  0
 11 13  1  0  0  0  0
 12 14  1  0  0  0  0
 12 32  1  0  0  0  0
 13 15  2  0  0  0  0
 13 33  1  0  0  0  0
 14 16  2  0  0  0  0
 14 34  1  0  0  0  0
 15 16  1  0  0  0  0
 15 35  1  0  0  0  0
 16 17  1  0  0  0  0
 17 36  1  0  0  0  0
 17 37  1  0  0  0  0
 17 38  1  0  0  0  0
M  END
> <PUBCHEM_COMPOUND_CID>
57486975

> <PUBCHEM_CONFORMER_RMSD>
0.6

> <PUBCHEM_CONFORMER_DIVERSEORDER>
1
53
4
47
49
26
28
39
43
15
54
50
7
25
30
56
13
8
52
34
27
33
11
51
38
12
42
35
41
20
37
46
22
31
48
55
3
6
45
40
36
44
23
32
24
29
17
18
21
19
14
5
10
16
2
9

> <PUBCHEM_MMFF94_PARTIAL_CHARGES>
17
1 -0.57
11 0.09
12 -0.15
13 -0.15
14 -0.15
15 -0.15
16 -0.14
17 0.14
2 -0.81
3 0.27
32 0.15
33 0.15
34 0.15
35 0.15
4 0.27
5 0.33
9 0.42

> <PUBCHEM_EFFECTIVE_ROTOR_COUNT>
5

> <PUBCHEM_PHARMACOPHORE_FEATURES>
5
1 1 acceptor
1 10 hydrophobe
1 2 cation
5 2 3 4 6 7 rings
6 11 12 13 14 15 16 rings

> <PUBCHEM_HEAVY_ATOM_COUNT>
17

> <PUBCHEM_ATOM_DEF_STEREO_COUNT>
0

> <PUBCHEM_ATOM_UDEF_STEREO_COUNT>
1

> <PUBCHEM_BOND_DEF_STEREO_COUNT>
0

> <PUBCHEM_BOND_UDEF_STEREO_COUNT>
0

> <PUBCHEM_ISOTOPIC_ATOM_COUNT>
0

> <PUBCHEM_COMPONENT_COUNT>
1

> <PUBCHEM_CACTVS_TAUTO_COUNT>
7

> <PUBCHEM_CONFORMER_ID>
036D2E7F00000001

> <PUBCHEM_MMFF94_ENERGY>
37.321

> <PUBCHEM_FEATURE_SELFOVERLAP>
25.372

> <PUBCHEM_SHAPE_FINGERPRINT>
11046707 91 18202004334602595622
11578080 2 17316721543982935220
12202030 40 17416982650691488300
12500047 106 18124591981904471012
12553582 1 18408317813472827299
12714826 92 18130784542628504579
12788726 201 18261951843400682817
12892183 10 12895087227123404319
13296908 3 17275097315120054570
13583140 156 17700101384965471370
14251764 30 18117293638637224475
14386348 63 17418094316892433262
14576447 43 18186517726674632538
16752209 62 18264753407855417671
16945 1 18337945706087642769
17349148 13 17168134642580462248
18186145 218 15574987390562125067
192875 21 16660911228204704888
19862831 5 17603863420596561487
200 152 18040155123661428814
20300324 65 18333736793067764692
20361792 2 18270112543340373271
20645477 70 17689423207241520615
20671657 53 18339929332506976309
20871999 31 18411135805555009933
21061003 4 16845850200218367049
21524375 3 17537439513792234709
21634736 98 18188492487974940614
22094290 60 18411420587888465102
231179 274 13839988824500206390
23382010 3 16371562747353258051
23402539 116 18408322163942167996
23402655 69 17313097514907367590
23557571 272 18342161276798018464
23559900 14 18341885295289850080
23598288 3 17969500395007931337
25 1 15357972352434430986
3082319 5 17967530168596345686
3286 77 16702018724887184883
603831 33 18041276591283451954
7364860 26 17835517498776976637
7615 1 17677600965755156456
81228 2 18341896260267646921

> <PUBCHEM_SHAPE_MULTIPOLES>
339
7.91
2.41
1.24
4.13
1.58
0.37
-4.92
-2.77
-2.5
-0.24
0.57
0.05
-0.31

> <PUBCHEM_SHAPE_SELFOVERLAP>
703.252

> <PUBCHEM_SHAPE_VOLUME>
196.2

> <PUBCHEM_COORDINATE_TYPE>
2
5
10

$$$$
57493771
  -OEChem-12271619053D

 38 39  0     1  0  0  0  0  0999 V2000
    0.9339   -1.6833    1.8693 O   0  0  0  0  0  0  0  0  0  0  0  0
   -1.1851   -1.4806   -0.1305 N   0  0  0  0  0  0  0  0  0  0  0  0
    0.1814   -1.9267   -0.4096 C   0  0  1  0  0  0  0  0  0  0  0  0
   -1.3813   -0.1131   -0.5831 C   0  0  0  0  0  0  0  0  0  0  0  0
    1.1152   -1.3521    0.6781 C   0  0  0  0  0  0  0  0  0  0  0  0
    0.2331   -3.4490   -0.4021 C   0  0  0  0  0  0  0  0  0  0  0  0
    2.1818   -0.4264    0.3308 C   0  0  0  0  0  0  0  0  0  0  0  0
   -2.7796    0.3731   -0.3088 C   0  0  0  0  0  0  0  0  0  0  0  0
    2.5946    0.5378    1.2503 C   0  0  0  0  0  0  0  0  0  0  0  0
    2.7920   -0.5028   -0.9212 C   0  0  0  0  0  0  0  0  0  0  0  0
    4.2284    1.3489   -0.3339 C   0  0  0  0  0  0  0  0  0  0  0  0
   -3.7819    0.1898   -1.2614 C   0  0  0  0  0  0  0  0  0  0  0  0
   -3.0729    1.0065    0.8989 C   0  0  0  0  0  0  0  0  0  0  0  0
    3.6180    1.4253    0.9180 C   0  0  0  0  0  0  0  0  0  0  0  0
    3.8154    0.3848   -1.2536 C   0  0  0  0  0  0  0  0  0  0  0  0
   -5.0773    0.6399   -1.0065 C   0  0  0  0  0  0  0  0  0  0  0  0
   -4.3683    1.4566    1.1539 C   0  0  0  0  0  0  0  0  0  0  0  0
    5.3228    2.2978   -0.6897 C   0  0  0  0  0  0  0  0  0  0  0  0
   -5.3704    1.2733    0.2011 C   0  0  0  0  0  0  0  0  0  0  0  0
    0.4709   -1.5996   -1.4117 H   0  0  0  0  0  0  0  0  0  0  0  0
   -1.8434   -2.0860   -0.6219 H   0  0  0  0  0  0  0  0  0  0  0  0
   -1.1850   -0.0272   -1.6602 H   0  0  0  0  0  0  0  0  0  0  0  0
   -0.6785    0.5709   -0.0911 H   0  0  0  0  0  0  0  0  0  0  0  0
   -0.0973   -3.8630    0.5576 H   0  0  0  0  0  0  0  0  0  0  0  0
   -0.4004   -3.8715   -1.1897 H   0  0  0  0  0  0  0  0  0  0  0  0
    1.2577   -3.7986   -0.5709 H   0  0  0  0  0  0  0  0  0  0  0  0
    2.1276    0.6169    2.2286 H   0  0  0  0  0  0  0  0  0  0  0  0
    2.5242   -1.2606   -1.6507 H   0  0  0  0  0  0  0  0  0  0  0  0
   -3.5666   -0.3039   -2.2053 H   0  0  0  0  0  0  0  0  0  0  0  0
   -2.3013    1.1537    1.6501 H   0  0  0  0  0  0  0  0  0  0  0  0
    3.9290    2.1740    1.6418 H   0  0  0  0  0  0  0  0  0  0  0  0
    4.2876    0.3118   -2.2297 H   0  0  0  0  0  0  0  0  0  0  0  0
   -5.8578    0.4968   -1.7481 H   0  0  0  0  0  0  0  0  0  0  0  0
   -4.5968    1.9494    2.0943 H   0  0  0  0  0  0  0  0  0  0  0  0
    6.0378    1.8356   -1.3788 H   0  0  0  0  0  0  0  0  0  0  0  0
    5.8860    2.6029    0.1988 H   0  0  0  0  0  0  0  0  0  0  0  0
    4.9054    3.1914   -1.1642 H   0  0  0  0  0  0  0  0  0  0  0  0
   -6.3791    1.6236    0.3997 H   0  0  0  0  0  0  0  0  0  0  0  0
  1  5  2  0  0  0  0
  2  3  1  0  0  0  0
  2  4  1  0  0  0  0
  2 21  1  0  0  0  0
  3  5  1  0  0  0  0
  3  6  1  0  0  0  0
  3 20  1  0  0  0  0
  4  8  1  0  0  0  0
  4 22  1  0  0  0  0
  4 23  1  0  0  0  0
  5  7  1  0  0  0  0
  6 24  1  0  0  0  0
  6 25  1  0  0  0  0
  6 26  1  0  0  0  0
  7  9  2  0  0  0  0
  7 10  1  0  0  0  0
  8 12  2  0  0  0  0
  8 13  1  0  0  0  0
  9 14  1  0  0  0  0
  9 27  1  0  0  0  0
 10 15  2  0  0  0  0
 10 28  1  0  0  0  0
 11 14  2  0  0  0  0
 11 15  1  0  0  0  0
 11 18  1  0  0  0  0
 12 16  1  0  0  0  0
 12 29  1  0  0  0  0
 13 17  2  0  0  0  0
 13 30  1  0  0  0  0
 14 31  1  0  0  0  0
 15 32  1  0  0  0  0
 16 19  2  0  0  0  0
 16 33  1  0  0  0  0
 17 19  1  0  0  0  0
 17 34  1  0  0  0  0
 18 35  1  0  0  0  0
 18 36  1  0  0  0  0
 18 37  1  0  0  0  0
 19 38  1  0  0  0  0
M  END
> <PUBCHEM_COMPOUND_CID>
57493771

> <PUBCHEM_CONFORMER_RMSD>
0.6

> <PUBCHEM_CONFORMER_DIVERSEORDER>
1
199
106
96
61
168
97
181
108
49
127
39
4
143
197
159
95
194
65
160
28
166
155
109
53
98
60
33
129
85
3
170
206
176
122
145
147
149
113
211
205
126
134
82
5
30
154
175
84
135
68
45
70
27
48
76
191
75
63
35
107
142
41
55
138
38
140
121
57
32
100
91
43
114
152
37
146
131
195
210
56
62
130
81
59
88
66
192
167
110
67
124
116
79
141
69
214
31
13
72
125
209
15
178
90
40
86
193
115
137
157
117
14
83
151
50
120
179
173
112
158
198
111
172
20
215
153
132
156
190
128
24
164
54
196
16
187
99
9
51
208
177
150
17
186
144
200
184
11
203
10
212
89
133
58
12
213
103
52
87
136
183
119
22
92
104
29
207
188
148
42
185
123
102
161
201
34
71
44
182
118
80
165
6
174
36
74
78
101
21
202
2
189
163
77
180
64
18
73
105
19
204
162
94
47
25
26
139
46
93
23
7
8
171
169

> <PUBCHEM_MMFF94_PARTIAL_CHARGES>
28
1 -0.57
10 -0.15
11 -0.14
12 -0.15
13 -0.15
14 -0.15
15 -0.15
16 -0.15
17 -0.15
18 0.14
19 -0.15
2 -0.9
21 0.36
27 0.15
28 0.15
29 0.15
3 0.33
30 0.15
31 0.15
32 0.15
33 0.15
34 0.15
38 0.15
4 0.41
5 0.42
7 0.09
8 -0.14
9 -0.15

> <PUBCHEM_EFFECTIVE_ROTOR_COUNT>
5

> <PUBCHEM_PHARMACOPHORE_FEATURES>
5
1 1 acceptor
1 2 cation
1 2 donor
6 7 9 10 11 14 15 rings
6 8 12 13 16 17 19 rings

> <PUBCHEM_HEAVY_ATOM_COUNT>
19

> <PUBCHEM_ATOM_DEF_STEREO_COUNT>
0

> <PUBCHEM_ATOM_UDEF_STEREO_COUNT>
1

> <PUBCHEM_BOND_DEF_STEREO_COUNT>
0

> <PUBCHEM_BOND_UDEF_STEREO_COUNT>
0

> <PUBCHEM_ISOTOPIC_ATOM_COUNT>
0

> <PUBCHEM_COMPONENT_COUNT>
1

> <PUBCHEM_CACTVS_TAUTO_COUNT>
7

> <PUBCHEM_CONFORMER_ID>
036D490B00000001

> <PUBCHEM_MMFF94_ENERGY>
48.102

> <PUBCHEM_FEATURE_SELFOVERLAP>
25.372

> <PUBCHEM_SHAPE_FINGERPRINT>
10498660 4 18342451552151856881
10670039 82 18343025454219642084
10681291 71 18413112770537998697
10753850 27 11887682749300136140
11796584 16 13254793512701747589
12363563 72 9655578534373189628
12390115 104 18337965595944079326
12633257 1 14129060352426859788
12730499 353 18342186552585563915
12788726 201 17903908195334614082
12892183 10 15140948548341938468
13544653 18 9727634999019607782
13583140 156 15430303780739069711
13828863 39 15286787887025611156
13955234 65 18191873323043512171
14178342 30 12541245612235028063
1420 369 8862947177520634828
14251764 38 17690559006874244824
14341114 328 15574723512013860828
14528608 73 18272081683051516109
14774955 27 18334851702169017261
15188451 53 13262685876376147129
15210252 30 18272371988202082096
15342168 16 18410009906201970949
1741750 31 18339920523677011498
17834072 32 18264489658124887404
1798214 20 12751241389236571772
1798214 55 18408884040127443300
1813 80 17481428175259846390
18222031 100 10737286822680380570
18785283 64 18263924341534001962
193927 3 10807941495805719748
204376 136 18335137596524695943
20626108 58 11170209686674334741
20671657 53 12823296822895458898
21250096 35 9295286140420047557
21524375 3 18409440375979318050
21756936 100 16952268731716749332
21857420 4 13894799573191919413
21864079 5 18270680844849795969
2255824 54 17983292634576158455
23402655 69 17917712422313364780
23559900 14 17840577107901855103
2637199 183 18202286883268135870
2838139 119 18272368707015508524
3009799 131 16917353645740785364
314173 85 8142091969766960654
3472631 163 18263645220262290332
351380 3 9871754597984984116
458136 41 18340210678735238967
474 4 18411138030654017869
49207404 50 16878219771090233511
5281201 14 13901893515118812459
59682541 52 17560814186601261908
59755656 520 18335698368998465182
633830 44 18202002092840391295
6442390 28 18410302440335080779
76465 3 9079122141677972796
7808743 9 18264207079330928188
960060 61 13183014137860108329

> <PUBCHEM_SHAPE_MULTIPOLES>
380.16
11.61
2.58
1.36
5.25
1.98
0.22
-10.4
-2.2
-1.41
0.09
-0.11
-0.06
-0.81

> <PUBCHEM_SHAPE_SELFOVERLAP>
799.283

> <PUBCHEM_SHAPE_VOLUME>
215.5

> <PUBCHEM_COORDINATE_TYPE>
2
5
10

$$$$
57501499
  -OEChem-12271619193D

 31 31  0     1  0  0  0  0  0999 V2000
    0.6020    0.7489    1.8353 O   0  0  0  0  0  0  0  0  0  0  0  0
    1.8416    2.0604   -0.4080 N   0  0  0  0  0  0  0  0  0  0  0  0
    1.4400    0.6548   -0.4265 C   0  0  1  0  0  0  0  0  0  0  0  0
    2.6622   -0.2290   -0.1311 C   0  0  0  0  0  0  0  0  0  0  0  0
    2.2983   -1.7165   -0.0757 C   0  0  0  0  0  0  0  0  0  0  0  0
    0.3717    0.5035    0.6520 C   0  0  0  0  0  0  0  0  0  0  0  0
   -0.9913    0.0440    0.2699 C   0  0  0  0  0  0  0  0  0  0  0  0
    3.5221   -2.5778    0.1951 C   0  0  0  0  0  0  0  0  0  0  0  0
    0.8746    2.8820   -1.1195 C   0  0  0  0  0  0  0  0  0  0  0  0
   -1.1602   -0.8075   -0.8220 C   0  0  0  0  0  0  0  0  0  0  0  0
   -2.0999    0.4637    1.0049 C   0  0  0  0  0  0  0  0  0  0  0  0
   -2.4377   -1.2392   -1.1788 C   0  0  0  0  0  0  0  0  0  0  0  0
   -3.3773    0.0321    0.6483 C   0  0  0  0  0  0  0  0  0  0  0  0
   -3.5463   -0.8194   -0.4437 C   0  0  0  0  0  0  0  0  0  0  0  0
    1.0728    0.3972   -1.4236 H   0  0  0  0  0  0  0  0  0  0  0  0
    3.1154    0.0593    0.8269 H   0  0  0  0  0  0  0  0  0  0  0  0
    3.4258   -0.0719   -0.9041 H   0  0  0  0  0  0  0  0  0  0  0  0
    1.8558   -2.0261   -1.0289 H   0  0  0  0  0  0  0  0  0  0  0  0
    1.5593   -1.9066    0.7099 H   0  0  0  0  0  0  0  0  0  0  0  0
    2.7474    2.1631   -0.8659 H   0  0  0  0  0  0  0  0  0  0  0  0
    3.9785   -2.3195    1.1560 H   0  0  0  0  0  0  0  0  0  0  0  0
    3.2423   -3.6355    0.2252 H   0  0  0  0  0  0  0  0  0  0  0  0
    4.2748   -2.4480   -0.5891 H   0  0  0  0  0  0  0  0  0  0  0  0
   -0.1110    2.8642   -0.6443 H   0  0  0  0  0  0  0  0  0  0  0  0
    0.7742    2.5785   -2.1669 H   0  0  0  0  0  0  0  0  0  0  0  0
    1.2134    3.9231   -1.1103 H   0  0  0  0  0  0  0  0  0  0  0  0
   -0.3255   -1.1781   -1.4061 H   0  0  0  0  0  0  0  0  0  0  0  0
   -1.9883    1.1306    1.8558 H   0  0  0  0  0  0  0  0  0  0  0  0
   -2.5693   -1.9067   -2.0254 H   0  0  0  0  0  0  0  0  0  0  0  0
   -4.2408    0.3594    1.2200 H   0  0  0  0  0  0  0  0  0  0  0  0
   -4.5409   -1.1563   -0.7208 H   0  0  0  0  0  0  0  0  0  0  0  0
  1  6  2  0  0  0  0
  2  3  1  0  0  0  0
  2  9  1  0  0  0  0
  2 20  1  0  0  0  0
  3  4  1  0  0  0  0
  3  6  1  0  0  0  0
  3 15  1  0  0  0  0
  4  5  1  0  0  0  0
  4 16  1  0  0  0  0
  4 17  1  0  0  0  0
  5  8  1  0  0  0  0
  5 18  1  0  0  0  0
  5 19  1  0  0  0  0
  6  7  1  0  0  0  0
  7 10  2  0  0  0  0
  7 11  1  0  0  0  0
  8 21  1  0  0  0  0
  8 22  1  0  0  0  0
  8 23  1  0  0  0  0
  9 24  1  0  0  0  0
  9 25  1  0  0  0  0
  9 26  1  0  0  0  0
 10 12  1  0  0  0  0
 10 27  1  0  0  0  0
 11 13  2  0  0  0  0
 11 28  1  0  0  0  0
 12 14  2  0  0  0  0
 12 29  1  0  0  0  0
 13 14  1  0  0  0  0
 13 30  1  0  0  0  0
 14 31  1  0  0  0  0
M  END
> <PUBCHEM_COMPOUND_CID>
57501499

> <PUBCHEM_CONFORMER_RMSD>
0.6

> <PUBCHEM_CONFORMER_DIVERSEORDER>
1
23
158
159
105
122
56
156
57
66
68
127
148
73
97
33
111
87
64
62
15
135
152
82
46
124
106
92
118
110
98
153
76
17
99
141
108
52
10
126
80
143
39
116
142
90
109
3
61
45
129
139
78
104
128
123
131
21
146
79
22
37
60
130
83
154
34
51
133
136
84
151
117
149
65
138
95
132
67
119
150
114
24
121
145
157
41
140
31
42
120
69
47
59
12
93
53
25
27
91
134
112
44
77
100
30
94
155
115
40
26
36
125
8
29
137
28
102
38
89
101
88
49
107
63
75
86
81
11
74
96
9
55
54
113
2
58
144
4
43
147
6
48
160
71
85
72
70
35
50
32
19
18
103
5
16
7
20
13
14

> <PUBCHEM_MMFF94_PARTIAL_CHARGES>
17
1 -0.57
10 -0.15
11 -0.15
12 -0.15
13 -0.15
14 -0.15
2 -0.9
20 0.36
27 0.15
28 0.15
29 0.15
3 0.33
30 0.15
31 0.15
6 0.42
7 0.09
9 0.27

> <PUBCHEM_EFFECTIVE_ROTOR_COUNT>
5

> <PUBCHEM_PHARMACOPHORE_FEATURES>
5
1 1 acceptor
1 2 cation
1 2 donor
1 8 hydrophobe
6 7 10 11 12 13 14 rings

> <PUBCHEM_HEAVY_ATOM_COUNT>
14

> <PUBCHEM_ATOM_DEF_STEREO_COUNT>
0

> <PUBCHEM_ATOM_UDEF_STEREO_COUNT>
1

> <PUBCHEM_BOND_DEF_STEREO_COUNT>
0

> <PUBCHEM_BOND_UDEF_STEREO_COUNT>
0

> <PUBCHEM_ISOTOPIC_ATOM_COUNT>
0

> <PUBCHEM_COMPONENT_COUNT>
1

> <PUBCHEM_CACTVS_TAUTO_COUNT>
2

> <PUBCHEM_CONFORMER_ID>
036D673B00000001

> <PUBCHEM_MMFF94_ENERGY>
27.4297

> <PUBCHEM_FEATURE_SELFOVERLAP>
25.371

> <PUBCHEM_SHAPE_FINGERPRINT>
10130415 120 17917997169939149355
11578080 2 18128796583089155000
11769659 78 18272646827142407771
12326174 3 17823682239276906616
12932764 1 17560243677410121875
14817 1 14638536833399669360
15279307 12 18127134305763776543
15375462 189 18131355219370886842
16945 1 18263091053168556204
1813 80 18268164058433659334
18511873 20 18271812259394205395
19422 9 18341900731449830147
19786989 88 17825105062988908149
20339313 130 18334576832392935306
20361792 2 18335699386757936438
20559304 39 17917432072401729699
20645476 183 18198913689400987607
20645477 70 18261664974119478727
20671657 53 18336267847149136910
20711985 344 17754725036190542392
21296965 67 18263082111405277090
2255824 54 18338240482762640078
232386 152 17489868249783459854
23419403 2 17698968883240369952
23463225 33 18201441363343064983
23526113 38 17023484009268495424
23532345 88 18410291440796540301
23552423 10 18270116962740492407
23598291 2 18270699604897530340
6992083 37 18126019164860942545
7364860 26 18340767160404375152
8030462 33 17915741079605862789
81228 2 17826787037065752712

> <PUBCHEM_SHAPE_MULTIPOLES>
277.26
5.6
2.48
1.21
1.02
0.95
-0.2
-3.63
0.06
-2.64
0.82
0.4
0.27
-0.83

> <PUBCHEM_SHAPE_SELFOVERLAP>
557.219

> <PUBCHEM_SHAPE_VOLUME>
163.4

> <PUBCHEM_COORDINATE_TYPE>
2
5
10

$$$$
57504017
  -OEChem-12271620073D

 34 36  0     1  0  0  0  0  0999 V2000
   -1.5576    1.9831   -0.2390 N   0  0  0  0  0  0  0  0  0  0  0  0
   -0.9628   -1.5423   -0.4198 C   0  0  1  0  0  0  0  0  0  0  0  0
   -2.2589   -0.2076    0.8114 C   0  0  2  0  0  0  0  0  0  0  0  0
   -0.2740   -0.1549   -0.5917 C   0  0  1  0  0  0  0  0  0  0  0  0
   -1.1136    0.7376    0.3702 C   0  0  1  0  0  0  0  0  0  0  0  0
   -1.4819   -1.5084    1.0220 C   0  0  0  0  0  0  0  0  0  0  0  0
   -2.2891   -1.5191   -1.2074 C   0  0  0  0  0  0  0  0  0  0  0  0
   -3.1764   -0.5946   -0.3628 C   0  0  0  0  0  0  0  0  0  0  0  0
    1.2116   -0.0710   -0.2906 C   0  0  0  0  0  0  0  0  0  0  0  0
    2.0091    0.8531   -0.9654 C   0  0  0  0  0  0  0  0  0  0  0  0
    1.7788   -0.9184    0.6611 C   0  0  0  0  0  0  0  0  0  0  0  0
   -2.3447    2.7717    0.6999 C   0  0  0  0  0  0  0  0  0  0  0  0
    3.3742    0.9299   -0.6887 C   0  0  0  0  0  0  0  0  0  0  0  0
    3.1437   -0.8416    0.9380 C   0  0  0  0  0  0  0  0  0  0  0  0
    3.9414    0.0826    0.2630 C   0  0  0  0  0  0  0  0  0  0  0  0
   -0.3342   -2.3987   -0.6747 H   0  0  0  0  0  0  0  0  0  0  0  0
   -2.8044    0.1327    1.6948 H   0  0  0  0  0  0  0  0  0  0  0  0
   -0.4054    0.1593   -1.6371 H   0  0  0  0  0  0  0  0  0  0  0  0
   -0.5107    0.9813    1.2576 H   0  0  0  0  0  0  0  0  0  0  0  0
   -2.1310   -2.3590    1.2594 H   0  0  0  0  0  0  0  0  0  0  0  0
   -0.7287   -1.4172    1.8057 H   0  0  0  0  0  0  0  0  0  0  0  0
   -2.7290   -2.5220   -1.2543 H   0  0  0  0  0  0  0  0  0  0  0  0
   -2.1694   -1.1551   -2.2326 H   0  0  0  0  0  0  0  0  0  0  0  0
   -4.0532   -1.1451   -0.0027 H   0  0  0  0  0  0  0  0  0  0  0  0
   -3.5339    0.2670   -0.9339 H   0  0  0  0  0  0  0  0  0  0  0  0
   -0.7437    2.5223   -0.5335 H   0  0  0  0  0  0  0  0  0  0  0  0
    1.5793    1.5205   -1.7075 H   0  0  0  0  0  0  0  0  0  0  0  0
    1.2112   -1.6707    1.1923 H   0  0  0  0  0  0  0  0  0  0  0  0
   -1.7962    2.9700    1.6266 H   0  0  0  0  0  0  0  0  0  0  0  0
   -2.5802    3.7386    0.2431 H   0  0  0  0  0  0  0  0  0  0  0  0
   -3.3003    2.2953    0.9375 H   0  0  0  0  0  0  0  0  0  0  0  0
    3.9952    1.6496   -1.2140 H   0  0  0  0  0  0  0  0  0  0  0  0
    3.5874   -1.5054    1.6743 H   0  0  0  0  0  0  0  0  0  0  0  0
    5.0045    0.1413    0.4776 H   0  0  0  0  0  0  0  0  0  0  0  0
  1  5  1  0  0  0  0
  1 12  1  0  0  0  0
  1 26  1  0  0  0  0
  2  4  1  0  0  0  0
  2  6  1  0  0  0  0
  2  7  1  0  0  0  0
  2 16  1  0  0  0  0
  3  5  1  0  0  0  0
  3  6  1  0  0  0  0
  3  8  1  0  0  0  0
  3 17  1  0  0  0  0
  4  5  1  0  0  0  0
  4  9  1  0  0  0  0
  4 18  1  0  0  0  0
  5 19  1  0  0  0  0
  6 20  1  0  0  0  0
  6 21  1  0  0  0  0
  7  8  1  0  0  0  0
  7 22  1  0  0  0  0
  7 23  1  0  0  0  0
  8 24  1  0  0  0  0
  8 25  1  0  0  0  0
  9 10  2  0  0  0  0
  9 11  1  0  0  0  0
 10 13  1  0  0  0  0
 10 27  1  0  0  0  0
 11 14  2  0  0  0  0
 11 28  1  0  0  0  0
 12 29  1  0  0  0  0
 12 30  1  0  0  0  0
 12 31  1  0  0  0  0
 13 15  2  0  0  0  0
 13 32  1  0  0  0  0
 14 15  1  0  0  0  0
 14 33  1  0  0  0  0
 15 34  1  0  0  0  0
M  END
> <PUBCHEM_COMPOUND_CID>
57504017

> <PUBCHEM_CONFORMER_RMSD>
0.6

> <PUBCHEM_CONFORMER_DIVERSEORDER>
2
9
12
1
13
8
3
7
10
11
4
5
6

> <PUBCHEM_MMFF94_PARTIAL_CHARGES>
16
1 -0.9
10 -0.15
11 -0.15
12 0.27
13 -0.15
14 -0.15
15 -0.15
26 0.36
27 0.15
28 0.15
32 0.15
33 0.15
34 0.15
4 0.14
5 0.27
9 -0.14

> <PUBCHEM_EFFECTIVE_ROTOR_COUNT>
3

> <PUBCHEM_PHARMACOPHORE_FEATURES>
4
1 1 cation
1 1 donor
6 9 10 11 13 14 15 rings
7 2 3 4 5 6 7 8 rings

> <PUBCHEM_HEAVY_ATOM_COUNT>
15

> <PUBCHEM_ATOM_DEF_STEREO_COUNT>
0

> <PUBCHEM_ATOM_UDEF_STEREO_COUNT>
4

> <PUBCHEM_BOND_DEF_STEREO_COUNT>
0

> <PUBCHEM_BOND_UDEF_STEREO_COUNT>
0

> <PUBCHEM_ISOTOPIC_ATOM_COUNT>
0

> <PUBCHEM_COMPONENT_COUNT>
1

> <PUBCHEM_CACTVS_TAUTO_COUNT>
1

> <PUBCHEM_CONFORMER_ID>
036D711100000002

> <PUBCHEM_MMFF94_ENERGY>
50.2837

> <PUBCHEM_FEATURE_SELFOVERLAP>
20.297

> <PUBCHEM_SHAPE_FINGERPRINT>
12932764 1 18131634499893394754
13024252 1 17967811669738551047
13296908 3 15574710313827097890
13296909 8 18270103652668510088
13764800 53 17987809509487992033
14144814 61 18113899355836040618
14614273 12 17917715682140775391
14787075 74 17179419183434139140
15076042 46 18335426750570583507
15442244 35 18190738635907251746
15669948 3 18342176695513852302
15775835 57 18343026579294631058
15906896 17 18410859820005380947
16752209 62 18341607096956266487
16945 1 18340774818114701639
19868273 325 18200314458339749205
200 152 18261381303981820254
20510252 161 18273500052455183377
20525323 117 18410295808736108036
21452121 199 16694113421310292375
21501502 16 18335981965625319866
21524375 3 18122626042134485025
22112679 90 17985280813475299951
22445834 79 18113335280559132914
2306618 200 17821998826787002949
23236772 104 18259704501467528192
23402539 116 18272642468351840023
23557571 272 17846780715387126296
23559900 14 18201993318702142658
2748010 2 17982752782771316317
3248919 1 18114178649011738346
3312278 4 18042409199649733354
369184 2 17676204710236067927
5706482 22 18338794490604642033
77492 1 18334294288270145734
8030462 33 18333733550293388742
81228 2 18412834589954340801
90525 40 18410294670754527478

> <PUBCHEM_SHAPE_MULTIPOLES>
303.71
5.87
2.08
1.11
4.34
1.33
-0.01
0.32
0.17
-1.88
0.22
-0.06
-0.18
-0.96

> <PUBCHEM_SHAPE_SELFOVERLAP>
654.093

> <PUBCHEM_SHAPE_VOLUME>
170.8

> <PUBCHEM_COORDINATE_TYPE>
2
5
10

$$$$
58216164
  -OEChem-12271618343D

 26 26  0     1  0  0  0  0  0999 V2000
    3.3020   -1.6048    0.2397 F   0  0  0  0  0  0  0  0  0  0  0  0
   -3.5093   -0.4135    0.0897 N   0  0  0  0  0  0  0  0  0  0  0  0
   -2.1250   -0.3159   -0.3825 C   0  0  1  0  0  0  0  0  0  0  0  0
   -1.2212    0.1612    0.7691 C   0  0  0  0  0  0  0  0  0  0  0  0
    0.2253    0.3326    0.3713 C   0  0  0  0  0  0  0  0  0  0  0  0
   -1.7058   -1.6806   -0.9291 C   0  0  0  0  0  0  0  0  0  0  0  0
    1.1130   -0.7366    0.4909 C   0  0  0  0  0  0  0  0  0  0  0  0
    0.6739    1.5606   -0.1154 C   0  0  0  0  0  0  0  0  0  0  0  0
   -4.1110    0.9058    0.1874 C   0  0  0  0  0  0  0  0  0  0  0  0
    2.4495   -0.5780    0.1239 C   0  0  0  0  0  0  0  0  0  0  0  0
    2.0104    1.7192   -0.4821 C   0  0  0  0  0  0  0  0  0  0  0  0
    2.8981    0.6499   -0.3628 C   0  0  0  0  0  0  0  0  0  0  0  0
   -2.0628    0.3906   -1.2214 H   0  0  0  0  0  0  0  0  0  0  0  0
   -1.2775   -0.5440    1.6103 H   0  0  0  0  0  0  0  0  0  0  0  0
   -1.5653    1.1197    1.1755 H   0  0  0  0  0  0  0  0  0  0  0  0
   -1.6561   -2.4353   -0.1362 H   0  0  0  0  0  0  0  0  0  0  0  0
   -0.7303   -1.6333   -1.4228 H   0  0  0  0  0  0  0  0  0  0  0  0
   -2.4156   -2.0367   -1.6853 H   0  0  0  0  0  0  0  0  0  0  0  0
   -4.0565   -0.9649   -0.5715 H   0  0  0  0  0  0  0  0  0  0  0  0
    0.7791   -1.6975    0.8728 H   0  0  0  0  0  0  0  0  0  0  0  0
   -0.0087    2.4003   -0.2154 H   0  0  0  0  0  0  0  0  0  0  0  0
   -3.6592    1.5189    0.9717 H   0  0  0  0  0  0  0  0  0  0  0  0
   -5.1679    0.7945    0.4521 H   0  0  0  0  0  0  0  0  0  0  0  0
   -4.0706    1.4475   -0.7636 H   0  0  0  0  0  0  0  0  0  0  0  0
    2.3597    2.6751   -0.8614 H   0  0  0  0  0  0  0  0  0  0  0  0
    3.9386    0.7731   -0.6484 H   0  0  0  0  0  0  0  0  0  0  0  0
  1 10  1  0  0  0  0
  2  3  1  0  0  0  0
  2  9  1  0  0  0  0
  2 19  1  0  0  0  0
  3  4  1  0  0  0  0
  3  6  1  0  0  0  0
  3 13  1  0  0  0  0
  4  5  1  0  0  0  0
  4 14  1  0  0  0  0
  4 15  1  0  0  0  0
  5  7  2  0  0  0  0
  5  8  1  0  0  0  0
  6 16  1  0  0  0  0
  6 17  1  0  0  0  0
  6 18  1  0  0  0  0
  7 10  1  0  0  0  0
  7 20  1  0  0  0  0
  8 11  2  0  0  0  0
  8 21  1  0  0  0  0
  9 22  1  0  0  0  0
  9 23  1  0  0  0  0
  9 24  1  0  0  0  0
 10 12  2  0  0  0  0
 11 12  1  0  0  0  0
 11 25  1  0  0  0  0
 12 26  1  0  0  0  0
M  END
> <PUBCHEM_COMPOUND_CID>
58216164

> <PUBCHEM_CONFORMER_RMSD>
0.6

> <PUBCHEM_CONFORMER_DIVERSEORDER>
1
4
28
12
22
25
18
11
8
7
3
27
5
29
9
21
10
26
24
16
6
19
23
14
2
20
17
15
13

> <PUBCHEM_MMFF94_PARTIAL_CHARGES>
16
1 -0.19
10 0.19
11 -0.15
12 -0.15
19 0.36
2 -0.9
20 0.15
21 0.15
25 0.15
26 0.15
3 0.27
4 0.14
5 -0.14
7 -0.15
8 -0.15
9 0.27

> <PUBCHEM_EFFECTIVE_ROTOR_COUNT>
3

> <PUBCHEM_PHARMACOPHORE_FEATURES>
3
1 2 cation
1 2 donor
6 5 7 8 10 11 12 rings

> <PUBCHEM_HEAVY_ATOM_COUNT>
12

> <PUBCHEM_ATOM_DEF_STEREO_COUNT>
0

> <PUBCHEM_ATOM_UDEF_STEREO_COUNT>
1

> <PUBCHEM_BOND_DEF_STEREO_COUNT>
0

> <PUBCHEM_BOND_UDEF_STEREO_COUNT>
0

> <PUBCHEM_ISOTOPIC_ATOM_COUNT>
0

> <PUBCHEM_COMPONENT_COUNT>
1

> <PUBCHEM_CACTVS_TAUTO_COUNT>
1

> <PUBCHEM_CONFORMER_ID>
03784EE400000001

> <PUBCHEM_MMFF94_ENERGY>
19.583

> <PUBCHEM_FEATURE_SELFOVERLAP>
15.223

> <PUBCHEM_SHAPE_FINGERPRINT>
10130415 120 18411133615121565673
10922523 26 18335979796540423517
11031198 65 17968669322735321212
11471102 20 18261107469820266965
12932764 1 17987803058700008881
13764800 53 15141500473594164663
14128692 85 18343299305713083826
14144814 61 18342740728036421945
14325111 11 18409450327634333441
14993402 34 18272094885131923069
15442244 35 18338518521512650449
15775835 57 18337677523945081509
16945 1 18263088867420618720
17844478 74 17240201028147465029
18186145 218 17603299349878150515
18511873 20 18342173345645154475
18619055 16 18342737442207092305
19422 9 18410013264755762755
20645476 183 18270969066977438399
20645477 70 18408603643367151255
20871998 22 18195809570681535014
22802520 49 16806986772071030926
23402539 116 17560792187815810921
23402655 69 18407758136258170253
23463225 33 18341332201816972079
23552423 10 18195805404051165277
23598291 2 18410849988530010543
25 1 18040716973871100907
2748010 2 15097346749397226436
3248919 1 18043238231569790923
528886 8 18334856164260197088
63268167 104 18409452517767130088
74978 22 18059008505525223745
9939556 21 18340766047986519239

> <PUBCHEM_SHAPE_MULTIPOLES>
234.7
6.07
1.68
0.82
3.63
0.04
-0.03
-0.1
-0.12
-0.59
-0.27
0.1
0.08
-0.67

> <PUBCHEM_SHAPE_SELFOVERLAP>
472.509

> <PUBCHEM_SHAPE_VOLUME>
139.2

> <PUBCHEM_COORDINATE_TYPE>
2
5
10

$$$$
6423085
  -OEChem-12271619393D

 44 45  0     1  0  0  0  0  0999 V2000
   -0.3055    0.0613   -2.1158 O   0  0  0  0  0  0  0  0  0  0  0  0
   -2.0264    1.1883   -0.0997 N   0  0  0  0  0  0  0  0  0  0  0  0
   -1.2101    0.0040    0.1216 C   0  0  1  0  0  0  0  0  0  0  0  0
   -3.1576    1.2675    0.8241 C   0  0  0  0  0  0  0  0  0  0  0  0
   -1.2791    2.4283    0.1081 C   0  0  0  0  0  0  0  0  0  0  0  0
   -3.6121    2.7129    0.6843 C   0  0  0  0  0  0  0  0  0  0  0  0
   -2.3786    3.4751    0.2103 C   0  0  0  0  0  0  0  0  0  0  0  0
   -2.0707   -1.2549   -0.0693 C   0  0  0  0  0  0  0  0  0  0  0  0
   -1.3157   -2.5786    0.1181 C   0  0  0  0  0  0  0  0  0  0  0  0
   -0.0853    0.0634   -0.9057 C   0  0  0  0  0  0  0  0  0  0  0  0
   -2.2046   -3.8155   -0.0160 C   0  0  0  0  0  0  0  0  0  0  0  0
    1.3232    0.1353   -0.4359 C   0  0  0  0  0  0  0  0  0  0  0  0
   -1.4248   -5.0909    0.2659 C   0  0  0  0  0  0  0  0  0  0  0  0
    1.6550   -0.4541    0.7658 C   0  0  0  0  0  0  0  0  0  0  0  0
    2.2526    0.7878   -1.2186 C   0  0  0  0  0  0  0  0  0  0  0  0
    2.9772   -0.3877    1.2053 C   0  0  0  0  0  0  0  0  0  0  0  0
    3.5748    0.8539   -0.7791 C   0  0  0  0  0  0  0  0  0  0  0  0
    3.9371    0.2661    0.4328 C   0  0  0  0  0  0  0  0  0  0  0  0
    5.3505    0.3375    0.9039 C   0  0  0  0  0  0  0  0  0  0  0  0
   -0.8303    0.0185    1.1469 H   0  0  0  0  0  0  0  0  0  0  0  0
   -2.8577    1.0730    1.8619 H   0  0  0  0  0  0  0  0  0  0  0  0
   -3.9803    0.5965    0.5590 H   0  0  0  0  0  0  0  0  0  0  0  0
   -0.6010    2.6677   -0.7172 H   0  0  0  0  0  0  0  0  0  0  0  0
   -0.7032    2.4086    1.0425 H   0  0  0  0  0  0  0  0  0  0  0  0
   -4.4111    2.8014   -0.0613 H   0  0  0  0  0  0  0  0  0  0  0  0
   -3.9922    3.1073    1.6321 H   0  0  0  0  0  0  0  0  0  0  0  0
   -2.1064    4.2773    0.9036 H   0  0  0  0  0  0  0  0  0  0  0  0
   -2.5771    3.9288   -0.7679 H   0  0  0  0  0  0  0  0  0  0  0  0
   -2.5229   -1.2544   -1.0704 H   0  0  0  0  0  0  0  0  0  0  0  0
   -2.8972   -1.2675    0.6504 H   0  0  0  0  0  0  0  0  0  0  0  0
   -0.8541   -2.5817    1.1131 H   0  0  0  0  0  0  0  0  0  0  0  0
   -0.5013   -2.6470   -0.6126 H   0  0  0  0  0  0  0  0  0  0  0  0
   -3.0451   -3.7476    0.6844 H   0  0  0  0  0  0  0  0  0  0  0  0
   -2.6262   -3.8608   -1.0266 H   0  0  0  0  0  0  0  0  0  0  0  0
   -2.0765   -5.9640    0.1617 H   0  0  0  0  0  0  0  0  0  0  0  0
   -0.5911   -5.2035   -0.4347 H   0  0  0  0  0  0  0  0  0  0  0  0
   -1.0212   -5.0878    1.2835 H   0  0  0  0  0  0  0  0  0  0  0  0
    0.9499   -1.0008    1.3801 H   0  0  0  0  0  0  0  0  0  0  0  0
    1.9842    1.2555   -2.1611 H   0  0  0  0  0  0  0  0  0  0  0  0
    3.2489   -0.8542    2.1487 H   0  0  0  0  0  0  0  0  0  0  0  0
    4.3129    1.3691   -1.3883 H   0  0  0  0  0  0  0  0  0  0  0  0
    5.6146   -0.5459    1.4951 H   0  0  0  0  0  0  0  0  0  0  0  0
    5.4960    1.2296    1.5211 H   0  0  0  0  0  0  0  0  0  0  0  0
    6.0471    0.3776    0.0596 H   0  0  0  0  0  0  0  0  0  0  0  0
  1 10  2  0  0  0  0
  2  3  1  0  0  0  0
  2  4  1  0  0  0  0
  2  5  1  0  0  0  0
  3  8  1  0  0  0  0
  3 10  1  0  0  0  0
  3 20  1  0  0  0  0
  4  6  1  0  0  0  0
  4 21  1  0  0  0  0
  4 22  1  0  0  0  0
  5  7  1  0  0  0  0
  5 23  1  0  0  0  0
  5 24  1  0  0  0  0
  6  7  1  0  0  0  0
  6 25  1  0  0  0  0
  6 26  1  0  0  0  0
  7 27  1  0  0  0  0
  7 28  1  0  0  0  0
  8  9  1  0  0  0  0
  8 29  1  0  0  0  0
  8 30  1  0  0  0  0
  9 11  1  0  0  0  0
  9 31  1  0  0  0  0
  9 32  1  0  0  0  0
 10 12  1  0  0  0  0
 11 13  1  0  0  0  0
 11 33  1  0  0  0  0
 11 34  1  0  0  0  0
 12 14  2  0  0  0  0
 12 15  1  0  0  0  0
 13 35  1  0  0  0  0
 13 36  1  0  0  0  0
 13 37  1  0  0  0  0
 14 16  1  0  0  0  0
 14 38  1  0  0  0  0
 15 17  2  0  0  0  0
 15 39  1  0  0  0  0
 16 18  2  0  0  0  0
 16 40  1  0  0  0  0
 17 18  1  0  0  0  0
 17 41  1  0  0  0  0
 18 19  1  0  0  0  0
 19 42  1  0  0  0  0
 19 43  1  0  0  0  0
 19 44  1  0  0  0  0
M  END
> <PUBCHEM_COMPOUND_CID>
6423085

> <PUBCHEM_CONFORMER_RMSD>
0.8

> <PUBCHEM_CONFORMER_DIVERSEORDER>
1
39
7
28
41
22
17
18
9
16
35
38
42
26
14
29
40
12
33
25
37
20
15
21
32
34
3
31
27
36
8
10
24
19
13
11
4
23
2
6
30
5

> <PUBCHEM_MMFF94_PARTIAL_CHARGES>
17
1 -0.57
10 0.42
12 0.09
14 -0.15
15 -0.15
16 -0.15
17 -0.15
18 -0.14
19 0.14
2 -0.81
3 0.33
38 0.15
39 0.15
4 0.27
40 0.15
41 0.15
5 0.27

> <PUBCHEM_EFFECTIVE_ROTOR_COUNT>
7

> <PUBCHEM_PHARMACOPHORE_FEATURES>
5
1 1 acceptor
1 13 hydrophobe
1 2 cation
5 2 4 5 6 7 rings
6 12 14 15 16 17 18 rings

> <PUBCHEM_HEAVY_ATOM_COUNT>
19

> <PUBCHEM_ATOM_DEF_STEREO_COUNT>
0

> <PUBCHEM_ATOM_UDEF_STEREO_COUNT>
1

> <PUBCHEM_BOND_DEF_STEREO_COUNT>
0

> <PUBCHEM_BOND_UDEF_STEREO_COUNT>
0

> <PUBCHEM_ISOTOPIC_ATOM_COUNT>
0

> <PUBCHEM_COMPONENT_COUNT>
1

> <PUBCHEM_CACTVS_TAUTO_COUNT>
2

> <PUBCHEM_CONFORMER_ID>
0062022D00000001

> <PUBCHEM_MMFF94_ENERGY>
37.7835

> <PUBCHEM_FEATURE_SELFOVERLAP>
25.371

> <PUBCHEM_SHAPE_FINGERPRINT>
11036077 51 18338791226139840490
11056379 131 18339089310324589134
11265709 11 18050289468511734579
11552529 35 18264476442663342578
121448 382 18342164541278858645
12173636 292 18339074891507381653
12251169 10 18187086109587603548
12500047 106 18341045229645859712
12553582 1 17978240674672106395
12788726 201 18118138080166482723
12839892 36 18336268921439243201
12969540 37 16821919622025535822
13004483 165 18124027103194658011
13032168 30 17824534399722694322
13140716 1 18124316274910596475
13538477 17 18335140912144613444
13583140 156 17846489370934213818
136203 1 18339646745239302491
13955234 65 17618798951069115289
14178342 30 18408876357079979178
14844126 61 18335979882234424915
15042514 8 18337961198335762507
15842332 3 17896331366644681348
15906896 17 18343294877470154231
17980427 26 17765424353559414893
19433438 48 17894898642911515632
20510252 161 18271531909799289697
20600515 1 17912669061498504291
20602899 9 17972563720091304087
20681651 13 17751891779752210008
20832881 197 17756985976012151851
212916 134 18197766726679301600
21524375 3 17986386681523116981
21650355 55 18267584796067664939
21731228 192 18268150864014284433
22224240 67 18200883881642881761
23402539 116 18271799155849743319
23419403 2 17254520186876568791
23557571 272 18130793395046978472
23558518 356 18341328894877141231
23559900 14 18128272099009860700
23598288 3 18116168820697539011
25147074 1 17895199969454051756
3091708 16 9055041759003657491
532947 4 17692252932768349414
58807428 26 18267877073034714401
59755656 520 18339636733480475652
633830 44 17770497538986459013
6992083 37 18040718060698443076
7097593 13 18261105228332537824
7364860 26 17474956420185560121
77188 2 17763178442409798203
81228 2 18272374234622217399

> <PUBCHEM_SHAPE_MULTIPOLES>
380.16
7.28
4.86
1.18
9.13
6.3
0.34
-3.07
-2.33
-8.17
-0.74
0.6
-0.17
-0.78

> <PUBCHEM_SHAPE_SELFOVERLAP>
780.3

> <PUBCHEM_SHAPE_VOLUME>
222.1

> <PUBCHEM_COORDINATE_TYPE>
2
5
10

$$$$
6430745
  -OEChem-12271619293D

 35 36  0     1  0  0  0  0  0999 V2000
    0.4290    1.4559   -1.7312 O   0  0  0  0  0  0  0  0  0  0  0  0
    2.3905    0.0964   -0.0464 N   0  0  0  0  0  0  0  0  0  0  0  0
    1.9331   -1.2689   -0.3035 C   0  0  0  0  0  0  0  0  0  0  0  0
    3.4876   -0.0446    0.9105 C   0  0  0  0  0  0  0  0  0  0  0  0
    3.2351   -2.0465   -0.4259 C   0  0  0  0  0  0  0  0  0  0  0  0
    4.2558   -1.2439    0.3748 C   0  0  0  0  0  0  0  0  0  0  0  0
    1.3257    0.9545    0.4514 C   0  0  1  0  0  0  0  0  0  0  0  0
    1.8696    2.3568    0.6913 C   0  0  0  0  0  0  0  0  0  0  0  0
    0.2317    0.9873   -0.6104 C   0  0  0  0  0  0  0  0  0  0  0  0
   -1.1246    0.4547   -0.2863 C   0  0  0  0  0  0  0  0  0  0  0  0
   -1.5687    0.5294    1.0138 C   0  0  0  0  0  0  0  0  0  0  0  0
   -1.8781   -0.0902   -1.3008 C   0  0  0  0  0  0  0  0  0  0  0  0
   -2.8362    0.0320    1.3164 C   0  0  0  0  0  0  0  0  0  0  0  0
   -3.1457   -0.5876   -0.9983 C   0  0  0  0  0  0  0  0  0  0  0  0
   -3.6249   -0.5265    0.3104 C   0  0  0  0  0  0  0  0  0  0  0  0
   -4.9798   -1.0591    0.6342 C   0  0  0  0  0  0  0  0  0  0  0  0
    1.3459   -1.3607   -1.2227 H   0  0  0  0  0  0  0  0  0  0  0  0
    1.3441   -1.6682    0.5326 H   0  0  0  0  0  0  0  0  0  0  0  0
    3.1246   -0.2622    1.9233 H   0  0  0  0  0  0  0  0  0  0  0  0
    4.1367    0.8356    0.9500 H   0  0  0  0  0  0  0  0  0  0  0  0
    3.5539   -2.1108   -1.4730 H   0  0  0  0  0  0  0  0  0  0  0  0
    3.1313   -3.0668   -0.0432 H   0  0  0  0  0  0  0  0  0  0  0  0
    4.6909   -1.8365    1.1859 H   0  0  0  0  0  0  0  0  0  0  0  0
    5.0724   -0.9227   -0.2825 H   0  0  0  0  0  0  0  0  0  0  0  0
    0.9555    0.5581    1.4001 H   0  0  0  0  0  0  0  0  0  0  0  0
    1.0475    3.0524    0.8970 H   0  0  0  0  0  0  0  0  0  0  0  0
    2.5459    2.3966    1.5514 H   0  0  0  0  0  0  0  0  0  0  0  0
    2.4027    2.7450   -0.1848 H   0  0  0  0  0  0  0  0  0  0  0  0
   -1.0045    0.9952    1.8136 H   0  0  0  0  0  0  0  0  0  0  0  0
   -1.5147   -0.1499   -2.3221 H   0  0  0  0  0  0  0  0  0  0  0  0
   -3.2019    0.0921    2.3382 H   0  0  0  0  0  0  0  0  0  0  0  0
   -3.7492   -1.0234   -1.7901 H   0  0  0  0  0  0  0  0  0  0  0  0
   -4.9114   -2.1151    0.9137 H   0  0  0  0  0  0  0  0  0  0  0  0
   -5.4343   -0.5052    1.4627 H   0  0  0  0  0  0  0  0  0  0  0  0
   -5.6563   -0.9659   -0.2222 H   0  0  0  0  0  0  0  0  0  0  0  0
  1  9  2  0  0  0  0
  2  3  1  0  0  0  0
  2  4  1  0  0  0  0
  2  7  1  0  0  0  0
  3  5  1  0  0  0  0
  3 17  1  0  0  0  0
  3 18  1  0  0  0  0
  4  6  1  0  0  0  0
  4 19  1  0  0  0  0
  4 20  1  0  0  0  0
  5  6  1  0  0  0  0
  5 21  1  0  0  0  0
  5 22  1  0  0  0  0
  6 23  1  0  0  0  0
  6 24  1  0  0  0  0
  7  8  1  0  0  0  0
  7  9  1  0  0  0  0
  7 25  1  0  0  0  0
  8 26  1  0  0  0  0
  8 27  1  0  0  0  0
  8 28  1  0  0  0  0
  9 10  1  0  0  0  0
 10 11  2  0  0  0  0
 10 12  1  0  0  0  0
 11 13  1  0  0  0  0
 11 29  1  0  0  0  0
 12 14  2  0  0  0  0
 12 30  1  0  0  0  0
 13 15  2  0  0  0  0
 13 31  1  0  0  0  0
 14 15  1  0  0  0  0
 14 32  1  0  0  0  0
 15 16  1  0  0  0  0
 16 33  1  0  0  0  0
 16 34  1  0  0  0  0
 16 35  1  0  0  0  0
M  END
> <PUBCHEM_COMPOUND_CID>
6430745

> <PUBCHEM_CONFORMER_RMSD>
0.6

> <PUBCHEM_CONFORMER_DIVERSEORDER>
1
28
9
27
20
17
21
12
5
25
18
23
7
29
16
24
3
11
26
22
19
10
2
14
15
6
8
13
4

> <PUBCHEM_MMFF94_PARTIAL_CHARGES>
17
1 -0.57
10 0.09
11 -0.15
12 -0.15
13 -0.15
14 -0.15
15 -0.14
16 0.14
2 -0.81
29 0.15
3 0.27
30 0.15
31 0.15
32 0.15
4 0.27
7 0.33
9 0.42

> <PUBCHEM_EFFECTIVE_ROTOR_COUNT>
4

> <PUBCHEM_PHARMACOPHORE_FEATURES>
4
1 1 acceptor
1 2 cation
5 2 3 4 5 6 rings
6 10 11 12 13 14 15 rings

> <PUBCHEM_HEAVY_ATOM_COUNT>
16

> <PUBCHEM_ATOM_DEF_STEREO_COUNT>
0

> <PUBCHEM_ATOM_UDEF_STEREO_COUNT>
1

> <PUBCHEM_BOND_DEF_STEREO_COUNT>
0

> <PUBCHEM_BOND_UDEF_STEREO_COUNT>
0

> <PUBCHEM_ISOTOPIC_ATOM_COUNT>
0

> <PUBCHEM_COMPONENT_COUNT>
1

> <PUBCHEM_CACTVS_TAUTO_COUNT>
2

> <PUBCHEM_CONFORMER_ID>
0062201900000001

> <PUBCHEM_MMFF94_ENERGY>
38.0602

> <PUBCHEM_FEATURE_SELFOVERLAP>
20.297

> <PUBCHEM_SHAPE_FINGERPRINT>
10465860 71 16226051080398857255
10618630 7 18334859359932136470
10751810 167 15213017146302168105
11543360 7 13695880224234360490
11578080 2 17128978834128762841
12251169 10 17561363989116151849
12363563 72 17894915096488264130
12553582 1 18272647931281156606
12707595 3 17095530616426619609
12892183 10 17131550535943524314
13296908 3 17821721749798819869
13464513 79 18259987093510632794
13533116 47 18341336690733036387
13675066 3 18409448116058504945
14115302 16 13912595100024941401
14251764 30 17773053968415248126
14252887 29 18261391173964093280
14386348 63 17894630361473217915
15375462 189 18202560666327749570
15375462 478 17346597452204203121
15501101 241 18410007754244221820
15527383 91 18411140229413626721
15775835 57 9511455615393254298
16752209 62 15791717612581843961
16945 1 18342451569321085660
1813 80 18267882617979782244
19862831 5 13912326771900574762
200 152 18059842966262974605
20281475 54 18261116210316039138
20361792 2 18113620066628451268
20374829 77 17749383737351456363
20559304 39 17846787329309812000
20645477 70 18337091458646387367
20671657 53 17385724690233464516
20711985 344 17314778603698891820
20871998 22 18200036131880112678
20871999 31 16298390132328611015
21069387 34 18337386145317209111
22094290 60 15791731884504987079
22445834 79 18060137634936236623
2255824 54 18199750413465521160
231179 274 10663822966234777474
23382010 3 13046242592494252180
23402539 116 17023180466881686558
23403322 49 17676764258591371322
23557571 272 16370717166887357708
26918003 58 18342173375857735827
31174 14 18411414050869535040
3286 77 18409167718411710393
4028521 119 8502653705594050443
4072396 5 17203620268260474987
42 15 18343306972440742915
7097593 13 17632296748346554510
7364860 26 17823991236182803165
81228 2 17678448663134422156
83771 10 18334296444116797022
90316 7 17275109409927666057
94968 8 18259988167199631314

> <PUBCHEM_SHAPE_MULTIPOLES>
318.42
8.19
1.81
1.28
2.66
0.3
0.25
-4.52
-2.32
-1.83
0.01
0.61
0.22
0.14

> <PUBCHEM_SHAPE_SELFOVERLAP>
666.243

> <PUBCHEM_SHAPE_VOLUME>
183.4

> <PUBCHEM_COORDINATE_TYPE>
2
5
10

$$$$
6430836
  -OEChem-12271619263D

 36 37  0     1  0  0  0  0  0999 V2000
   -0.9268   -1.8123    1.4276 O   0  0  0  0  0  0  0  0  0  0  0  0
    4.6126    0.8136    0.0279 O   0  0  0  0  0  0  0  0  0  0  0  0
   -2.7021   -0.0453   -0.0517 N   0  0  0  0  0  0  0  0  0  0  0  0
   -2.2183    1.2063    0.5303 C   0  0  0  0  0  0  0  0  0  0  0  0
   -3.7198    0.3559   -1.0226 C   0  0  0  0  0  0  0  0  0  0  0  0
   -3.4973    2.0046    0.7347 C   0  0  0  0  0  0  0  0  0  0  0  0
   -4.4853    1.4434   -0.2834 C   0  0  0  0  0  0  0  0  0  0  0  0
   -1.6337   -0.8262   -0.6574 C   0  0  2  0  0  0  0  0  0  0  0  0
   -2.2065   -2.1131   -1.2364 C   0  0  0  0  0  0  0  0  0  0  0  0
   -0.6232   -1.1447    0.4393 C   0  0  0  0  0  0  0  0  0  0  0  0
    0.7710   -0.6227    0.3297 C   0  0  0  0  0  0  0  0  0  0  0  0
    1.3074   -0.4337   -0.9233 C   0  0  0  0  0  0  0  0  0  0  0  0
    1.4657   -0.3509    1.4860 C   0  0  0  0  0  0  0  0  0  0  0  0
    2.6103    0.0537   -1.0256 C   0  0  0  0  0  0  0  0  0  0  0  0
    2.7686    0.1367    1.3838 C   0  0  0  0  0  0  0  0  0  0  0  0
    3.3409    0.3391    0.1279 C   0  0  0  0  0  0  0  0  0  0  0  0
    5.1364    0.9956   -1.2868 C   0  0  0  0  0  0  0  0  0  0  0  0
   -1.5537    1.7474   -0.1559 H   0  0  0  0  0  0  0  0  0  0  0  0
   -1.6996    1.0658    1.4840 H   0  0  0  0  0  0  0  0  0  0  0  0
   -4.3933   -0.4612   -1.2994 H   0  0  0  0  0  0  0  0  0  0  0  0
   -3.2756    0.7732   -1.9355 H   0  0  0  0  0  0  0  0  0  0  0  0
   -3.3292    3.0764    0.5878 H   0  0  0  0  0  0  0  0  0  0  0  0
   -3.8890    1.8614    1.7486 H   0  0  0  0  0  0  0  0  0  0  0  0
   -5.3545    1.0240    0.2367 H   0  0  0  0  0  0  0  0  0  0  0  0
   -4.8452    2.2178   -0.9685 H   0  0  0  0  0  0  0  0  0  0  0  0
   -1.1809   -0.2508   -1.4686 H   0  0  0  0  0  0  0  0  0  0  0  0
   -2.8155   -2.6563   -0.5040 H   0  0  0  0  0  0  0  0  0  0  0  0
   -2.8187   -1.9305   -2.1255 H   0  0  0  0  0  0  0  0  0  0  0  0
   -1.3959   -2.7869   -1.5377 H   0  0  0  0  0  0  0  0  0  0  0  0
    0.7875   -0.6858   -1.8406 H   0  0  0  0  0  0  0  0  0  0  0  0
    1.0307   -0.4978    2.4698 H   0  0  0  0  0  0  0  0  0  0  0  0
    2.9972    0.1782   -2.0313 H   0  0  0  0  0  0  0  0  0  0  0  0
    3.3325    0.3583    2.2859 H   0  0  0  0  0  0  0  0  0  0  0  0
    4.5690    1.7475   -1.8457 H   0  0  0  0  0  0  0  0  0  0  0  0
    5.2093    0.0451   -1.8259 H   0  0  0  0  0  0  0  0  0  0  0  0
    6.1558    1.3803   -1.1781 H   0  0  0  0  0  0  0  0  0  0  0  0
  1 10  2  0  0  0  0
  2 16  1  0  0  0  0
  2 17  1  0  0  0  0
  3  4  1  0  0  0  0
  3  5  1  0  0  0  0
  3  8  1  0  0  0  0
  4  6  1  0  0  0  0
  4 18  1  0  0  0  0
  4 19  1  0  0  0  0
  5  7  1  0  0  0  0
  5 20  1  0  0  0  0
  5 21  1  0  0  0  0
  6  7  1  0  0  0  0
  6 22  1  0  0  0  0
  6 23  1  0  0  0  0
  7 24  1  0  0  0  0
  7 25  1  0  0  0  0
  8  9  1  0  0  0  0
  8 10  1  0  0  0  0
  8 26  1  0  0  0  0
  9 27  1  0  0  0  0
  9 28  1  0  0  0  0
  9 29  1  0  0  0  0
 10 11  1  0  0  0  0
 11 12  2  0  0  0  0
 11 13  1  0  0  0  0
 12 14  1  0  0  0  0
 12 30  1  0  0  0  0
 13 15  2  0  0  0  0
 13 31  1  0  0  0  0
 14 16  2  0  0  0  0
 14 32  1  0  0  0  0
 15 16  1  0  0  0  0
 15 33  1  0  0  0  0
 17 34  1  0  0  0  0
 17 35  1  0  0  0  0
 17 36  1  0  0  0  0
M  END
> <PUBCHEM_COMPOUND_CID>
6430836

> <PUBCHEM_CONFORMER_RMSD>
0.6

> <PUBCHEM_CONFORMER_DIVERSEORDER>
5
39
42
3
22
19
40
27
33
48
21
24
51
52
32
10
25
31
47
45
36
37
9
35
34
38
11
44
41
16
50
18
7
30
43
46
26
28
20
14
49
12
23
4
17
13
29
2
6
15
8
1

> <PUBCHEM_MMFF94_PARTIAL_CHARGES>
18
1 -0.57
10 0.42
11 0.09
12 -0.15
13 -0.15
14 -0.15
15 -0.15
16 0.08
17 0.28
2 -0.36
3 -0.81
30 0.15
31 0.15
32 0.15
33 0.15
4 0.27
5 0.27
8 0.33

> <PUBCHEM_EFFECTIVE_ROTOR_COUNT>
5

> <PUBCHEM_PHARMACOPHORE_FEATURES>
5
1 1 acceptor
1 2 acceptor
1 3 cation
5 3 4 5 6 7 rings
6 11 12 13 14 15 16 rings

> <PUBCHEM_HEAVY_ATOM_COUNT>
17

> <PUBCHEM_ATOM_DEF_STEREO_COUNT>
0

> <PUBCHEM_ATOM_UDEF_STEREO_COUNT>
1

> <PUBCHEM_BOND_DEF_STEREO_COUNT>
0

> <PUBCHEM_BOND_UDEF_STEREO_COUNT>
0

> <PUBCHEM_ISOTOPIC_ATOM_COUNT>
0

> <PUBCHEM_COMPONENT_COUNT>
1

> <PUBCHEM_CACTVS_TAUTO_COUNT>
2

> <PUBCHEM_CONFORMER_ID>
0062207400000005

> <PUBCHEM_MMFF94_ENERGY>
49.8384

> <PUBCHEM_FEATURE_SELFOVERLAP>
25.371

> <PUBCHEM_SHAPE_FINGERPRINT>
10498660 4 18129372705823245761
10618630 7 8430302555057577601
11046707 91 10159700183286483292
11471102 22 14996282500666568562
11640471 11 18187640280474429889
12186901 62 18059574728212245247
12236239 1 18113330916840659543
12251169 10 15285367201816750155
12500047 106 18131910477143376126
12507560 40 15140950721468718254
12788726 201 18044367472872571963
12892183 10 15574996109546377897
13288520 33 10591770882935165868
13675066 3 14418124132944102414
13764800 53 18408892828147456947
13994607 96 18260843608800024881
14123260 362 18335143102377376796
1420 369 10447930576845411340
14251752 14 13110972981247279337
14251764 75 17769388123333612169
14576447 43 13686297972330662700
14739800 52 18265877225062682760
15209294 21 17385726936912654288
15309172 13 16877657942181493715
15342168 16 17603587417476666943
15534591 1 18334294275258864259
15775835 57 18334288734856365457
17041 50 17561360720973237112
19784866 240 12463571785468886533
19862831 5 16128659643493569126
19868273 293 18272929431653234859
20112054 13 16950563272405555020
204376 136 17676489436460583563
20645477 56 18201723959400945031
20645477 70 15123509233474593052
20871999 31 17775276180187862629
21065199 12 14707204375264414797
21524375 3 18338511920490606547
21713013 43 15625926665066248045
221357 26 16343698794965521985
22620623 9 17416951989294807583
22854114 59 15357697482996056648
22926399 65 18343865506788138232
23402539 116 18411693305632626692
23402655 69 17203610328946750209
23557571 272 17988081209403843567
23559900 14 17775287145455835294
24859131 72 11169911688715934449
25 1 17203334351580789375
3086196 2 11025795392701883879
3472631 163 18410572881693620397
4028521 119 18272929397536316869
465052 167 11383246696497610749
474 4 18113620092451145300
5104073 3 16661204905700825816
568465 68 14490196002989280400
6049 1 17202758357553292627
633830 44 18263082107078745791
76465 3 11383837039356267572

> <PUBCHEM_SHAPE_MULTIPOLES>
333.13
9.06
1.77
1.42
4.16
0.24
-0.21
-5.27
3.1
-2.04
0.03
0.77
0.2
-0.58

> <PUBCHEM_SHAPE_SELFOVERLAP>
696.708

> <PUBCHEM_SHAPE_VOLUME>
191.7

> <PUBCHEM_COORDINATE_TYPE>
2
5
10

$$$$
6430845
  -OEChem-12271619253D

 35 37  0     1  0  0  0  0  0999 V2000
   -1.1396   -2.2964   -0.5776 O   0  0  0  0  0  0  0  0  0  0  0  0
    3.2638    1.0446    1.4976 O   0  0  0  0  0  0  0  0  0  0  0  0
    4.3987    0.6298   -0.5875 O   0  0  0  0  0  0  0  0  0  0  0  0
   -2.8475   -0.0243    0.0967 N   0  0  0  0  0  0  0  0  0  0  0  0
   -2.4032    0.8606   -0.9800 C   0  0  0  0  0  0  0  0  0  0  0  0
   -3.8113    0.7648    0.8632 C   0  0  0  0  0  0  0  0  0  0  0  0
   -3.6969    1.5212   -1.4329 C   0  0  0  0  0  0  0  0  0  0  0  0
   -4.6209    1.4614   -0.2206 C   0  0  0  0  0  0  0  0  0  0  0  0
   -1.7428   -0.5005    0.9158 C   0  0  2  0  0  0  0  0  0  0  0  0
   -0.7934   -1.2667    0.0009 C   0  0  0  0  0  0  0  0  0  0  0  0
   -2.2755   -1.4171    2.0092 C   0  0  0  0  0  0  0  0  0  0  0  0
    0.6020   -0.7727   -0.1916 C   0  0  0  0  0  0  0  0  0  0  0  0
    1.2023   -0.0867    0.8424 C   0  0  0  0  0  0  0  0  0  0  0  0
    1.2284   -1.0272   -1.4032 C   0  0  0  0  0  0  0  0  0  0  0  0
    2.4914    0.3509    0.6177 C   0  0  0  0  0  0  0  0  0  0  0  0
    3.1395    0.1142   -0.5730 C   0  0  0  0  0  0  0  0  0  0  0  0
    2.5340   -0.5733   -1.6047 C   0  0  0  0  0  0  0  0  0  0  0  0
    4.4710    1.2174    0.7275 C   0  0  0  0  0  0  0  0  0  0  0  0
   -1.9362    0.3252   -1.8127 H   0  0  0  0  0  0  0  0  0  0  0  0
   -1.7060    1.6279   -0.6187 H   0  0  0  0  0  0  0  0  0  0  0  0
   -3.3189    1.5153    1.4949 H   0  0  0  0  0  0  0  0  0  0  0  0
   -4.4651    0.1504    1.4900 H   0  0  0  0  0  0  0  0  0  0  0  0
   -3.5278    2.5509   -1.7634 H   0  0  0  0  0  0  0  0  0  0  0  0
   -4.1451    0.9692   -2.2675 H   0  0  0  0  0  0  0  0  0  0  0  0
   -5.5199    0.8847   -0.4682 H   0  0  0  0  0  0  0  0  0  0  0  0
   -4.9392    2.4600    0.0957 H   0  0  0  0  0  0  0  0  0  0  0  0
   -1.2482    0.3523    1.3873 H   0  0  0  0  0  0  0  0  0  0  0  0
   -1.4459   -1.9187    2.5212 H   0  0  0  0  0  0  0  0  0  0  0  0
   -2.8376   -0.8682    2.7718 H   0  0  0  0  0  0  0  0  0  0  0  0
   -2.9221   -2.2048    1.6046 H   0  0  0  0  0  0  0  0  0  0  0  0
    0.7448    0.0858    1.8077 H   0  0  0  0  0  0  0  0  0  0  0  0
    0.7282   -1.5652   -2.2033 H   0  0  0  0  0  0  0  0  0  0  0  0
    3.0475   -0.7561   -2.5419 H   0  0  0  0  0  0  0  0  0  0  0  0
    5.3035    0.7574    1.2722 H   0  0  0  0  0  0  0  0  0  0  0  0
    4.6694    2.2902    0.6221 H   0  0  0  0  0  0  0  0  0  0  0  0
  1 10  2  0  0  0  0
  2 15  1  0  0  0  0
  2 18  1  0  0  0  0
  3 16  1  0  0  0  0
  3 18  1  0  0  0  0
  4  5  1  0  0  0  0
  4  6  1  0  0  0  0
  4  9  1  0  0  0  0
  5  7  1  0  0  0  0
  5 19  1  0  0  0  0
  5 20  1  0  0  0  0
  6  8  1  0  0  0  0
  6 21  1  0  0  0  0
  6 22  1  0  0  0  0
  7  8  1  0  0  0  0
  7 23  1  0  0  0  0
  7 24  1  0  0  0  0
  8 25  1  0  0  0  0
  8 26  1  0  0  0  0
  9 10  1  0  0  0  0
  9 11  1  0  0  0  0
  9 27  1  0  0  0  0
 10 12  1  0  0  0  0
 11 28  1  0  0  0  0
 11 29  1  0  0  0  0
 11 30  1  0  0  0  0
 12 13  2  0  0  0  0
 12 14  1  0  0  0  0
 13 15  1  0  0  0  0
 13 31  1  0  0  0  0
 14 17  2  0  0  0  0
 14 32  1  0  0  0  0
 15 16  2  0  0  0  0
 16 17  1  0  0  0  0
 17 33  1  0  0  0  0
 18 34  1  0  0  0  0
 18 35  1  0  0  0  0
M  END
> <PUBCHEM_COMPOUND_CID>
6430845

> <PUBCHEM_CONFORMER_RMSD>
0.6

> <PUBCHEM_CONFORMER_DIVERSEORDER>
1
34
35
13
12
52
40
15
50
16
61
14
5
42
23
19
39
57
55
46
8
24
38
59
21
41
17
26
58
47
18
32
27
43
37
25
11
49
60
44
54
20
4
31
30
28
29
22
33
9
51
36
53
2
56
48
10
7
45
3
6

> <PUBCHEM_MMFF94_PARTIAL_CHARGES>
18
1 -0.57
10 0.42
12 0.09
13 -0.15
14 -0.15
15 0.08
16 0.08
17 -0.15
18 0.56
2 -0.36
3 -0.36
31 0.15
32 0.15
33 0.15
4 -0.81
5 0.27
6 0.27
9 0.33

> <PUBCHEM_EFFECTIVE_ROTOR_COUNT>
4.6

> <PUBCHEM_PHARMACOPHORE_FEATURES>
7
1 1 acceptor
1 2 acceptor
1 3 acceptor
1 4 cation
5 2 3 15 16 18 rings
5 4 5 6 7 8 rings
6 12 13 14 15 16 17 rings

> <PUBCHEM_HEAVY_ATOM_COUNT>
18

> <PUBCHEM_ATOM_DEF_STEREO_COUNT>
0

> <PUBCHEM_ATOM_UDEF_STEREO_COUNT>
1

> <PUBCHEM_BOND_DEF_STEREO_COUNT>
0

> <PUBCHEM_BOND_UDEF_STEREO_COUNT>
0

> <PUBCHEM_ISOTOPIC_ATOM_COUNT>
0

> <PUBCHEM_COMPONENT_COUNT>
1

> <PUBCHEM_CACTVS_TAUTO_COUNT>
2

> <PUBCHEM_CONFORMER_ID>
0062207D00000001

> <PUBCHEM_MMFF94_ENERGY>
43.067

> <PUBCHEM_FEATURE_SELFOVERLAP>
35.68

> <PUBCHEM_SHAPE_FINGERPRINT>
10498660 4 18339917126500383205
11132069 177 17968102988943620301
11543360 7 15841543081105311941
11552529 35 14419286363473465705
11725454 13 18338783563875537947
12077114 3 18335419092654301250
12251169 10 15357700794447496947
12403259 415 18342749519470570894
12500047 106 18412262869873029214
12553582 1 13767922434205758578
12670546 177 16845566513576475365
12670546 56 16950561120616481076
12730499 353 18131078104192143863
12788726 201 16446194323871603827
12892183 10 14924229279158860741
13103583 49 13046227104963885589
13583140 156 18335980969240621026
13675066 3 17821447954534753906
13764800 53 18261121759418943537
13965767 371 16012678565829289925
14178342 30 17240766219847319306
14251764 30 13901045882106866181
14341114 328 16226342438470284453
14576447 43 14908174244550284444
14957384 54 18187072988393897060
15209294 21 16877660179922654288
15375358 24 18272087197219850792
15375462 189 14129054833520225024
15842332 3 15720257121508011042
17349148 13 16916782934217360526
18186145 218 18201725003014707527
18219364 16 18130233751748714667
18915474 69 14189571935979933524
192875 21 17203044072016217170
19433438 48 15502367984805512616
19862831 5 15913324680576356417
200 152 15482671277523252024
20645477 56 18412268371293241907
20645477 70 17846227609419847310
20671657 53 12679454287928193387
20715895 44 16083317854687431693
20871999 31 14692564404269446449
21065198 48 15430046456474422165
212916 134 17822285773689198737
21634736 98 14261052320656771480
21639500 275 17203610402066429410
231179 274 18343019999842498864
23382010 3 17274808160879267343
23402539 116 18201710748007858516
23402655 69 16558756676119231041
23500284 214 18408043992127630153
23503953 91 16443061724959740760
23557571 272 18338247053988886111
23559900 14 17969232148335501822
23622692 88 15936408918595871647
25 1 17917714569427766999
27216 239 18335984267796492441
3082319 5 15554448474668752829
328317 168 18341885295163191213
4028521 119 18060135427476215681
474 4 17846776325450670785
495365 180 18338792304176722578
57096353 35 15554729983957859128
59027123 10 16415207727941803496
603831 33 15195567883525855943
633830 44 17774450365150557319
7097593 13 16008744693196332848
7615 1 16298958682903854423
83771 10 10737289030351618695
90316 7 16009032752853878429

> <PUBCHEM_SHAPE_MULTIPOLES>
347.84
8.79
1.69
1.59
0.52
0.31
0.21
-4.69
-2.95
-2.09
0.01
1.07
0.19
0.37

> <PUBCHEM_SHAPE_SELFOVERLAP>
752.695

> <PUBCHEM_SHAPE_VOLUME>
193.4

> <PUBCHEM_COORDINATE_TYPE>
2
5
10

$$$$
65812
  -OEChem-12271619443D

 53 55  0     0  0  0  0  0  0999 V2000
    5.7907   -2.0027   -0.9952 S   0  0  0  0  0  0  0  0  0  0  0  0
    0.6885   -1.1553   -0.3956 N   0  0  0  0  0  0  0  0  0  0  0  0
   -3.0524   -0.2897   -0.4981 C   0  0  0  0  0  0  0  0  0  0  0  0
   -1.7063   -0.8495    0.0321 C   0  0  0  0  0  0  0  0  0  0  0  0
   -0.5436   -0.5971   -0.9347 C   0  0  0  0  0  0  0  0  0  0  0  0
   -3.1655    1.2264   -0.3994 C   0  0  0  0  0  0  0  0  0  0  0  0
   -4.2698   -0.9754    0.1150 C   0  0  0  0  0  0  0  0  0  0  0  0
    1.8039   -0.9310   -1.3077 C   0  0  0  0  0  0  0  0  0  0  0  0
    3.0885   -1.5313   -0.7351 C   0  0  0  0  0  0  0  0  0  0  0  0
   -2.4999    1.9109    0.6176 C   0  0  0  0  0  0  0  0  0  0  0  0
   -4.8377   -0.4728    1.2859 C   0  0  0  0  0  0  0  0  0  0  0  0
   -3.9353    1.9300   -1.3258 C   0  0  0  0  0  0  0  0  0  0  0  0
   -4.8147   -2.1054   -0.4951 C   0  0  0  0  0  0  0  0  0  0  0  0
    4.2676   -1.2826   -1.6727 C   0  0  0  0  0  0  0  0  0  0  0  0
   -2.6040    3.2990    0.7079 C   0  0  0  0  0  0  0  0  0  0  0  0
   -5.9504   -1.1001    1.8463 C   0  0  0  0  0  0  0  0  0  0  0  0
   -4.0391    3.3181   -1.2355 C   0  0  0  0  0  0  0  0  0  0  0  0
   -5.9275   -2.7325    0.0653 C   0  0  0  0  0  0  0  0  0  0  0  0
   -3.3736    4.0025   -0.2186 C   0  0  0  0  0  0  0  0  0  0  0  0
   -6.4953   -2.2300    1.2359 C   0  0  0  0  0  0  0  0  0  0  0  0
    6.4306   -0.6369   -0.0325 C   0  0  0  0  0  0  0  0  0  0  0  0
    6.6214   -0.7810    1.3418 C   0  0  0  0  0  0  0  0  0  0  0  0
    6.7385    0.5723   -0.6563 C   0  0  0  0  0  0  0  0  0  0  0  0
    7.1201    0.2840    2.0921 C   0  0  0  0  0  0  0  0  0  0  0  0
    7.2374    1.6371    0.0941 C   0  0  0  0  0  0  0  0  0  0  0  0
    7.4281    1.4929    1.4682 C   0  0  0  0  0  0  0  0  0  0  0  0
   -3.0781   -0.5196   -1.5744 H   0  0  0  0  0  0  0  0  0  0  0  0
   -1.8105   -1.9415    0.1216 H   0  0  0  0  0  0  0  0  0  0  0  0
   -1.4707   -0.5190    1.0484 H   0  0  0  0  0  0  0  0  0  0  0  0
   -0.4256    0.4802   -1.0984 H   0  0  0  0  0  0  0  0  0  0  0  0
   -0.7733   -1.0613   -1.9014 H   0  0  0  0  0  0  0  0  0  0  0  0
    0.8925   -0.7328    0.5096 H   0  0  0  0  0  0  0  0  0  0  0  0
    1.5938   -1.3949   -2.2790 H   0  0  0  0  0  0  0  0  0  0  0  0
    1.9469    0.1442   -1.4719 H   0  0  0  0  0  0  0  0  0  0  0  0
    3.2910   -1.0833    0.2465 H   0  0  0  0  0  0  0  0  0  0  0  0
    2.9500   -2.6093   -0.5806 H   0  0  0  0  0  0  0  0  0  0  0  0
   -1.9095    1.4133    1.3774 H   0  0  0  0  0  0  0  0  0  0  0  0
   -4.4319    0.3886    1.8052 H   0  0  0  0  0  0  0  0  0  0  0  0
   -4.4600    1.4091   -2.1222 H   0  0  0  0  0  0  0  0  0  0  0  0
   -4.3805   -2.5089   -1.4059 H   0  0  0  0  0  0  0  0  0  0  0  0
    4.0770   -1.7742   -2.6331 H   0  0  0  0  0  0  0  0  0  0  0  0
    4.3864   -0.2151   -1.8805 H   0  0  0  0  0  0  0  0  0  0  0  0
   -2.0907    3.8321    1.5029 H   0  0  0  0  0  0  0  0  0  0  0  0
   -6.3898   -0.7125    2.7608 H   0  0  0  0  0  0  0  0  0  0  0  0
   -4.6389    3.8658   -1.9564 H   0  0  0  0  0  0  0  0  0  0  0  0
   -6.3512   -3.6127   -0.4092 H   0  0  0  0  0  0  0  0  0  0  0  0
   -3.4558    5.0831   -0.1472 H   0  0  0  0  0  0  0  0  0  0  0  0
   -7.3608   -2.7192    1.6732 H   0  0  0  0  0  0  0  0  0  0  0  0
    6.3862   -1.7154    1.8453 H   0  0  0  0  0  0  0  0  0  0  0  0
    6.6089    0.7049   -1.7275 H   0  0  0  0  0  0  0  0  0  0  0  0
    7.2686    0.1720    3.1621 H   0  0  0  0  0  0  0  0  0  0  0  0
    7.4797    2.5778   -0.3918 H   0  0  0  0  0  0  0  0  0  0  0  0
    7.8169    2.3218    2.0524 H   0  0  0  0  0  0  0  0  0  0  0  0
  1 14  1  0  0  0  0
  1 21  1  0  0  0  0
  2  5  1  0  0  0  0
  2  8  1  0  0  0  0
  2 32  1  0  0  0  0
  3  4  1  0  0  0  0
  3  6  1  0  0  0  0
  3  7  1  0  0  0  0
  3 27  1  0  0  0  0
  4  5  1  0  0  0  0
  4 28  1  0  0  0  0
  4 29  1  0  0  0  0
  5 30  1  0  0  0  0
  5 31  1  0  0  0  0
  6 10  2  0  0  0  0
  6 12  1  0  0  0  0
  7 11  2  0  0  0  0
  7 13  1  0  0  0  0
  8  9  1  0  0  0  0
  8 33  1  0  0  0  0
  8 34  1  0  0  0  0
  9 14  1  0  0  0  0
  9 35  1  0  0  0  0
  9 36  1  0  0  0  0
 10 15  1  0  0  0  0
 10 37  1  0  0  0  0
 11 16  1  0  0  0  0
 11 38  1  0  0  0  0
 12 17  2  0  0  0  0
 12 39  1  0  0  0  0
 13 18  2  0  0  0  0
 13 40  1  0  0  0  0
 14 41  1  0  0  0  0
 14 42  1  0  0  0  0
 15 19  2  0  0  0  0
 15 43  1  0  0  0  0
 16 20  2  0  0  0  0
 16 44  1  0  0  0  0
 17 19  1  0  0  0  0
 17 45  1  0  0  0  0
 18 20  1  0  0  0  0
 18 46  1  0  0  0  0
 19 47  1  0  0  0  0
 20 48  1  0  0  0  0
 21 22  2  0  0  0  0
 21 23  1  0  0  0  0
 22 24  1  0  0  0  0
 22 49  1  0  0  0  0
 23 25  2  0  0  0  0
 23 50  1  0  0  0  0
 24 26  2  0  0  0  0
 24 51  1  0  0  0  0
 25 26  1  0  0  0  0
 25 52  1  0  0  0  0
 26 53  1  0  0  0  0
M  END
> <PUBCHEM_COMPOUND_CID>
65812

> <PUBCHEM_CONFORMER_RMSD>
1

> <PUBCHEM_CONFORMER_DIVERSEORDER>
5
230
177
48
79
192
152
174
235
260
166
81
133
229
8
71
87
74
215
195
238
191
108
126
253
248
183
42
180
239
83
267
119
89
216
224
77
244
104
214
137
62
198
153
67
207
18
261
29
53
122
197
242
86
176
6
90
106
243
206
91
221
210
41
134
103
13
219
1
56
202
28
75
223
163
227
141
265
118
254
105
157
96
4
211
155
95
92
47
232
58
218
112
187
45
262
145
35
49
38
233
121
190
7
212
249
149
109
237
225
98
51
259
245
250
129
15
69
146
158
208
179
61
228
222
132
171
185
186
120
82
266
22
178
241
110
88
162
16
264
269
156
251
193
135
65
34
97
127
111
93
70
203
50
213
173
73
256
31
217
148
46
150
168
144
200
11
94
160
172
27
43
85
184
20
220
57
140
39
231
154
201
100
37
204
123
234
125
102
2
147
64
117
268
116
14
68
188
54
165
226
209
40
194
10
247
12
80
143
136
3
101
24
182
189
17
124
130
246
55
164
170
72
33
44
255
181
59
76
113
36
128
257
142
25
263
114
151
63
60
19
99
258
78
30
169
196
52
240
84
66
131
205
236
138
32
252
199
175
159
139
9
21
115
161
167
107
26
23

> <PUBCHEM_MMFF94_PARTIAL_CHARGES>
40
1 -0.33
10 -0.15
11 -0.15
12 -0.15
13 -0.15
14 0.23
15 -0.15
16 -0.15
17 -0.15
18 -0.15
19 -0.15
2 -0.9
20 -0.15
21 0.1
22 -0.15
23 -0.15
24 -0.15
25 -0.15
26 -0.15
3 0.29
32 0.36
37 0.15
38 0.15
39 0.15
40 0.15
43 0.15
44 0.15
45 0.15
46 0.15
47 0.15
48 0.15
49 0.15
5 0.27
50 0.15
51 0.15
52 0.15
53 0.15
6 -0.14
7 -0.14
8 0.27

> <PUBCHEM_EFFECTIVE_ROTOR_COUNT>
10

> <PUBCHEM_PHARMACOPHORE_FEATURES>
5
1 2 cation
1 2 donor
6 21 22 23 24 25 26 rings
6 6 10 12 15 17 19 rings
6 7 11 13 16 18 20 rings

> <PUBCHEM_HEAVY_ATOM_COUNT>
26

> <PUBCHEM_ATOM_DEF_STEREO_COUNT>
0

> <PUBCHEM_ATOM_UDEF_STEREO_COUNT>
0

> <PUBCHEM_BOND_DEF_STEREO_COUNT>
0

> <PUBCHEM_BOND_UDEF_STEREO_COUNT>
0

> <PUBCHEM_ISOTOPIC_ATOM_COUNT>
0

> <PUBCHEM_COMPONENT_COUNT>
1

> <PUBCHEM_CACTVS_TAUTO_COUNT>
1

> <PUBCHEM_CONFORMER_ID>
0001011400000005

> <PUBCHEM_MMFF94_ENERGY>
63.0109

> <PUBCHEM_FEATURE_SELFOVERLAP>
25.373

> <PUBCHEM_SHAPE_FINGERPRINT>
10290309 65 18059297560945834294
10369192 42 16630253575145789015
11135926 11 16200150955116374462
11443803 9 15648159791555859389
12596602 18 18187078430491637530
13073987 5 18334857178321307014
13914758 101 15285349618131379303
15183329 4 16056872529832954408
16990366 60 17826807124944918707
18470217 77 18260544498519304925
22956985 138 17543638986268634475
23081809 10 16732992990187222726
249057 25 17240773890811371158
2747138 104 18263097620131951667
3418910 222 18262251013912432172
3663271 9 17967810527614698330
397830 11 18343022181696792294
44317340 157 17060065809492385686
484985 159 11458715958930696085
5104073 3 18190462666910160378
5109719 28 18342182219569665296

> <PUBCHEM_SHAPE_MULTIPOLES>
533.94
24.37
3.86
1.68
39.79
3.74
0.45
-3.89
9.21
-6.96
-0.47
1.09
-0.09
3.61

> <PUBCHEM_SHAPE_SELFOVERLAP>
1105.146

> <PUBCHEM_SHAPE_VOLUME>
305

> <PUBCHEM_COORDINATE_TYPE>
2
5
10

$$$$
68871
  -OEChem-12271620083D

 38 40  0     1  0  0  0  0  0999 V2000
    3.5316    1.1142    2.5598 Cl  0  0  0  0  0  0  0  0  0  0  0  0
    5.5078    1.6893    0.0623 Cl  0  0  0  0  0  0  0  0  0  0  0  0
   -4.3917    2.0714    0.4070 O   0  0  0  0  0  0  0  0  0  0  0  0
   -1.1163   -3.0503   -0.1163 N   0  0  2  0  0  0  0  0  0  0  0  0
    0.2084   -1.0673   -0.7842 C   0  0  1  0  0  0  0  0  0  0  0  0
    0.2125   -2.4296   -0.0496 C   0  0  0  0  0  0  0  0  0  0  0  0
   -1.0106   -0.2174   -0.4469 C   0  0  0  0  0  0  0  0  0  0  0  0
   -2.0779   -2.2420    0.6507 C   0  0  0  0  0  0  0  0  0  0  0  0
   -2.1107   -0.7963    0.2137 C   0  0  0  0  0  0  0  0  0  0  0  0
    1.5425   -0.3696   -0.5540 C   0  0  0  0  0  0  0  0  0  0  0  0
   -1.0950    1.1231   -0.8599 C   0  0  0  0  0  0  0  0  0  0  0  0
   -3.2363   -0.0134    0.5106 C   0  0  0  0  0  0  0  0  0  0  0  0
   -1.0755   -4.4182    0.4005 C   0  0  0  0  0  0  0  0  0  0  0  0
   -3.2919    1.3232    0.1200 C   0  0  0  0  0  0  0  0  0  0  0  0
    1.9068    0.0166    0.7318 C   0  0  0  0  0  0  0  0  0  0  0  0
    2.3875   -0.1244   -1.6317 C   0  0  0  0  0  0  0  0  0  0  0  0
   -2.2251    1.8888   -0.5713 C   0  0  0  0  0  0  0  0  0  0  0  0
    3.1291    0.6547    0.9425 C   0  0  0  0  0  0  0  0  0  0  0  0
    3.6096    0.5141   -1.4210 C   0  0  0  0  0  0  0  0  0  0  0  0
    3.9806    0.9035   -0.1339 C   0  0  0  0  0  0  0  0  0  0  0  0
   -4.3855    3.4296   -0.0302 C   0  0  0  0  0  0  0  0  0  0  0  0
    0.1102   -1.2891   -1.8579 H   0  0  0  0  0  0  0  0  0  0  0  0
    0.9564   -3.0770   -0.5338 H   0  0  0  0  0  0  0  0  0  0  0  0
    0.5228   -2.3308    0.9995 H   0  0  0  0  0  0  0  0  0  0  0  0
   -1.8481   -2.2688    1.7245 H   0  0  0  0  0  0  0  0  0  0  0  0
   -3.0787   -2.6693    0.5092 H   0  0  0  0  0  0  0  0  0  0  0  0
   -0.2805    1.5852   -1.4119 H   0  0  0  0  0  0  0  0  0  0  0  0
   -4.0769   -0.4516    1.0441 H   0  0  0  0  0  0  0  0  0  0  0  0
   -0.3937   -5.0336   -0.1968 H   0  0  0  0  0  0  0  0  0  0  0  0
   -2.0640   -4.8855    0.3288 H   0  0  0  0  0  0  0  0  0  0  0  0
   -0.7496   -4.4582    1.4462 H   0  0  0  0  0  0  0  0  0  0  0  0
    1.2404   -0.1682    1.5711 H   0  0  0  0  0  0  0  0  0  0  0  0
    2.1118   -0.4221   -2.6394 H   0  0  0  0  0  0  0  0  0  0  0  0
   -2.2059    2.9167   -0.9168 H   0  0  0  0  0  0  0  0  0  0  0  0
    4.2609    0.7001   -2.2714 H   0  0  0  0  0  0  0  0  0  0  0  0
   -3.5880    4.0042    0.4529 H   0  0  0  0  0  0  0  0  0  0  0  0
   -5.3354    3.8746    0.2838 H   0  0  0  0  0  0  0  0  0  0  0  0
   -4.3449    3.5004   -1.1225 H   0  0  0  0  0  0  0  0  0  0  0  0
  1 18  1  0  0  0  0
  2 20  1  0  0  0  0
  3 14  1  0  0  0  0
  3 21  1  0  0  0  0
  4  6  1  0  0  0  0
  4  8  1  0  0  0  0
  4 13  1  0  0  0  0
  5  6  1  0  0  0  0
  5  7  1  0  0  0  0
  5 10  1  0  0  0  0
  5 22  1  0  0  0  0
  6 23  1  0  0  0  0
  6 24  1  0  0  0  0
  7  9  2  0  0  0  0
  7 11  1  0  0  0  0
  8  9  1  0  0  0  0
  8 25  1  0  0  0  0
  8 26  1  0  0  0  0
  9 12  1  0  0  0  0
 10 15  2  0  0  0  0
 10 16  1  0  0  0  0
 11 17  2  0  0  0  0
 11 27  1  0  0  0  0
 12 14  2  0  0  0  0
 12 28  1  0  0  0  0
 13 29  1  0  0  0  0
 13 30  1  0  0  0  0
 13 31  1  0  0  0  0
 14 17  1  0  0  0  0
 15 18  1  0  0  0  0
 15 32  1  0  0  0  0
 16 19  2  0  0  0  0
 16 33  1  0  0  0  0
 17 34  1  0  0  0  0
 18 20  2  0  0  0  0
 19 20  1  0  0  0  0
 19 35  1  0  0  0  0
 21 36  1  0  0  0  0
 21 37  1  0  0  0  0
 21 38  1  0  0  0  0
M  END
> <PUBCHEM_COMPOUND_CID>
68871

> <PUBCHEM_CONFORMER_RMSD>
0.6

> <PUBCHEM_CONFORMER_DIVERSEORDER>
12
11
24
7
21
4
18
16
26
9
22
14
8
23
25
6
3
20
17
15
5
19
10
13
2
1

> <PUBCHEM_MMFF94_PARTIAL_CHARGES>
27
1 -0.18
10 -0.14
11 -0.15
12 -0.15
13 0.27
14 0.08
15 -0.15
16 -0.15
17 -0.15
18 0.18
19 -0.15
2 -0.18
20 0.18
21 0.28
27 0.15
28 0.15
3 -0.36
32 0.15
33 0.15
34 0.15
35 0.15
4 -0.81
5 0.29
6 0.27
7 -0.14
8 0.41
9 -0.14

> <PUBCHEM_EFFECTIVE_ROTOR_COUNT>
2.8

> <PUBCHEM_PHARMACOPHORE_FEATURES>
5
1 3 acceptor
1 4 cation
6 10 15 16 18 19 20 rings
6 4 5 6 7 8 9 rings
6 7 9 11 12 14 17 rings

> <PUBCHEM_HEAVY_ATOM_COUNT>
21

> <PUBCHEM_ATOM_DEF_STEREO_COUNT>
0

> <PUBCHEM_ATOM_UDEF_STEREO_COUNT>
1

> <PUBCHEM_BOND_DEF_STEREO_COUNT>
0

> <PUBCHEM_BOND_UDEF_STEREO_COUNT>
0

> <PUBCHEM_ISOTOPIC_ATOM_COUNT>
0

> <PUBCHEM_COMPONENT_COUNT>
1

> <PUBCHEM_CACTVS_TAUTO_COUNT>
1

> <PUBCHEM_CONFORMER_ID>
00010D070000000C

> <PUBCHEM_MMFF94_ENERGY>
67.4377

> <PUBCHEM_FEATURE_SELFOVERLAP>
25.393

> <PUBCHEM_SHAPE_FINGERPRINT>
10165383 225 18196682659621682465
10319926 262 18268981142282090320
10411042 1 17617665796235171479
10498660 4 18341898441826560045
11265709 11 17832707155414739867
11725454 13 17774421842024818202
12107183 9 18262508192617046378
12173636 292 18409451384080263631
12236239 1 17386560409692161694
12390115 104 18269855180046785729
12403259 415 18341626879549336101
12500047 106 18412546526550428542
12553582 1 17758405449211818746
12788726 201 17826531146776707843
13140716 1 17831308563749525275
13583140 156 17916291922526901642
13878862 14 17398663511943687397
13955234 65 17831872248532198947
13965767 371 17895473609777756228
14178342 30 18263637528107841834
14341114 328 16805620169296642100
14787075 74 18131064961771585569
14848178 96 18197500610769807433
15230672 131 18335990775580035022
15295992 7 18201996603951366514
15842332 3 17677043676790085982
16945 1 18265057001518570711
17868525 174 16895961237635418065
17980427 26 18124585388860764143
18219364 16 16988006144995273506
18785283 64 18046347422730613379
20510252 161 18341623637133896723
20600515 1 17398072403403054967
21033648 29 18342174457778473208
212916 134 18411129212928027153
21524375 3 18199467666946194255
21650355 55 17976822313124962419
21731228 192 18335411318890323579
22112679 90 17677051386024287358
22149856 69 18046655334492236369
23493267 7 18341610456105936874
23557571 272 18199755915297112700
23559900 14 18343029883089774598
2748010 2 18191046537812888783
283562 15 18411698816556111371
3091708 16 8907833601959306619
350125 39 18046915870199572836
458136 41 18121516660803263771
495365 180 18122619453838872957
5104073 3 18117853105445404761
5265222 85 18194981840943346142
57124632 79 18120929499950591377
59755656 520 18409726248891413118
6049 1 17701554024224370642
633830 44 18128535964341368573
6442390 28 18338809935423355647
7097593 13 18042383821284035234
7364860 26 17833833768375447799
77492 1 17386281133765093470
7808743 9 18337394941310413628
81228 2 18194400215438445135
84936 182 17910677566498721985
90316 7 17530676602426641429
9981440 41 18335424522020491219

> <PUBCHEM_SHAPE_MULTIPOLES>
425.06
8.81
3.84
1.41
5.25
3.12
-0.49
-8.83
-1.38
-5.38
-0.49
1.84
-0.34
0.71

> <PUBCHEM_SHAPE_SELFOVERLAP>
898.158

> <PUBCHEM_SHAPE_VOLUME>
241.5

> <PUBCHEM_COORDINATE_TYPE>
2
5
10

$$$$
71300672
  -OEChem-12271619293D

 38 40  0     1  0  0  0  0  0999 V2000
   -1.1310   -0.4983   -2.2175 O   0  0  0  0  0  0  0  0  0  0  0  0
    3.3552   -0.6252    1.6669 O   0  0  0  0  0  0  0  0  0  0  0  0
    4.5240    0.8766    0.1883 O   0  0  0  0  0  0  0  0  0  0  0  0
   -2.7974    0.1673    0.0272 N   0  0  0  0  0  0  0  0  0  0  0  0
   -3.7941   -0.0279    1.0797 C   0  0  0  0  0  0  0  0  0  0  0  0
   -2.3366    1.5456    0.1915 C   0  0  0  0  0  0  0  0  0  0  0  0
   -1.7090   -0.7956    0.1071 C   0  0  1  0  0  0  0  0  0  0  0  0
   -3.6268    2.3059    0.4608 C   0  0  0  0  0  0  0  0  0  0  0  0
   -4.5834    1.2725    1.0479 C   0  0  0  0  0  0  0  0  0  0  0  0
   -2.2713   -2.2187   -0.0234 C   0  0  0  0  0  0  0  0  0  0  0  0
   -0.7639   -0.4643   -1.0438 C   0  0  0  0  0  0  0  0  0  0  0  0
   -1.1799   -3.2798    0.0510 C   0  0  0  0  0  0  0  0  0  0  0  0
    0.6446   -0.0860   -0.7465 C   0  0  0  0  0  0  0  0  0  0  0  0
    1.2771   -0.6045    0.3860 C   0  0  0  0  0  0  0  0  0  0  0  0
    1.3265    0.7903   -1.6090 C   0  0  0  0  0  0  0  0  0  0  0  0
    2.5830   -0.2252    0.6201 C   0  0  0  0  0  0  0  0  0  0  0  0
    3.2505    0.6325   -0.2241 C   0  0  0  0  0  0  0  0  0  0  0  0
    2.6488    1.1583   -1.3489 C   0  0  0  0  0  0  0  0  0  0  0  0
    4.5838    0.0765    1.3867 C   0  0  0  0  0  0  0  0  0  0  0  0
   -1.6613    1.6529    1.0504 H   0  0  0  0  0  0  0  0  0  0  0  0
   -1.8386    1.9439   -0.6982 H   0  0  0  0  0  0  0  0  0  0  0  0
   -4.4653   -0.8707    0.8884 H   0  0  0  0  0  0  0  0  0  0  0  0
   -3.3320   -0.1559    2.0671 H   0  0  0  0  0  0  0  0  0  0  0  0
   -1.2122   -0.6977    1.0770 H   0  0  0  0  0  0  0  0  0  0  0  0
   -4.9250    1.5590    2.0477 H   0  0  0  0  0  0  0  0  0  0  0  0
   -5.4665    1.1785    0.4049 H   0  0  0  0  0  0  0  0  0  0  0  0
   -4.0432    2.7092   -0.4697 H   0  0  0  0  0  0  0  0  0  0  0  0
   -3.4639    3.1434    1.1468 H   0  0  0  0  0  0  0  0  0  0  0  0
   -2.9796   -2.4441    0.7811 H   0  0  0  0  0  0  0  0  0  0  0  0
   -2.8094   -2.3372   -0.9726 H   0  0  0  0  0  0  0  0  0  0  0  0
   -0.4576   -3.1783   -0.7643 H   0  0  0  0  0  0  0  0  0  0  0  0
   -1.6247   -4.2775   -0.0253 H   0  0  0  0  0  0  0  0  0  0  0  0
   -0.6444   -3.2271    1.0038 H   0  0  0  0  0  0  0  0  0  0  0  0
    0.8026   -1.3004    1.0658 H   0  0  0  0  0  0  0  0  0  0  0  0
    0.8333    1.1987   -2.4878 H   0  0  0  0  0  0  0  0  0  0  0  0
    3.1777    1.8347   -2.0106 H   0  0  0  0  0  0  0  0  0  0  0  0
    5.3904   -0.6577    1.2786 H   0  0  0  0  0  0  0  0  0  0  0  0
    4.8151    0.7313    2.2347 H   0  0  0  0  0  0  0  0  0  0  0  0
  1 11  2  0  0  0  0
  2 16  1  0  0  0  0
  2 19  1  0  0  0  0
  3 17  1  0  0  0  0
  3 19  1  0  0  0  0
  4  5  1  0  0  0  0
  4  6  1  0  0  0  0
  4  7  1  0  0  0  0
  5  9  1  0  0  0  0
  5 22  1  0  0  0  0
  5 23  1  0  0  0  0
  6  8  1  0  0  0  0
  6 20  1  0  0  0  0
  6 21  1  0  0  0  0
  7 10  1  0  0  0  0
  7 11  1  0  0  0  0
  7 24  1  0  0  0  0
  8  9  1  0  0  0  0
  8 27  1  0  0  0  0
  8 28  1  0  0  0  0
  9 25  1  0  0  0  0
  9 26  1  0  0  0  0
 10 12  1  0  0  0  0
 10 29  1  0  0  0  0
 10 30  1  0  0  0  0
 11 13  1  0  0  0  0
 12 31  1  0  0  0  0
 12 32  1  0  0  0  0
 12 33  1  0  0  0  0
 13 14  2  0  0  0  0
 13 15  1  0  0  0  0
 14 16  1  0  0  0  0
 14 34  1  0  0  0  0
 15 18  2  0  0  0  0
 15 35  1  0  0  0  0
 16 17  2  0  0  0  0
 17 18  1  0  0  0  0
 18 36  1  0  0  0  0
 19 37  1  0  0  0  0
 19 38  1  0  0  0  0
M  END
> <PUBCHEM_COMPOUND_CID>
71300672

> <PUBCHEM_CONFORMER_RMSD>
0.8

> <PUBCHEM_CONFORMER_DIVERSEORDER>
1
37
11
40
9
31
8
36
22
20
14
23
2
34
12
39
17
7
16
38
18
25
21
19
24
13
15
4
35
29
10
27
6
30
33
28
26
32
3
5

> <PUBCHEM_MMFF94_PARTIAL_CHARGES>
18
1 -0.57
11 0.42
13 0.09
14 -0.15
15 -0.15
16 0.08
17 0.08
18 -0.15
19 0.56
2 -0.36
3 -0.36
34 0.15
35 0.15
36 0.15
4 -0.81
5 0.27
6 0.27
7 0.33

> <PUBCHEM_EFFECTIVE_ROTOR_COUNT>
5.6

> <PUBCHEM_PHARMACOPHORE_FEATURES>
8
1 1 acceptor
1 12 hydrophobe
1 2 acceptor
1 3 acceptor
1 4 cation
5 2 3 16 17 19 rings
5 4 5 6 8 9 rings
6 13 14 15 16 17 18 rings

> <PUBCHEM_HEAVY_ATOM_COUNT>
19

> <PUBCHEM_ATOM_DEF_STEREO_COUNT>
0

> <PUBCHEM_ATOM_UDEF_STEREO_COUNT>
1

> <PUBCHEM_BOND_DEF_STEREO_COUNT>
0

> <PUBCHEM_BOND_UDEF_STEREO_COUNT>
0

> <PUBCHEM_ISOTOPIC_ATOM_COUNT>
0

> <PUBCHEM_COMPONENT_COUNT>
1

> <PUBCHEM_CACTVS_TAUTO_COUNT>
2

> <PUBCHEM_CONFORMER_ID>
043FF64000000001

> <PUBCHEM_MMFF94_ENERGY>
42.3228

> <PUBCHEM_FEATURE_SELFOVERLAP>
40.751

> <PUBCHEM_SHAPE_FINGERPRINT>
10498660 4 17060055896286120145
11543360 7 11959721660061443073
11725454 13 17417802916246002419
11796584 16 12180935690763334288
12077114 3 17632573876884751484
12173636 292 18412259562426328015
12251169 10 18113339716880378924
12500047 106 18272087205936346962
12553582 1 17095515206643208738
12633257 1 18412543223377946721
12730499 353 15913055304839043213
12788726 201 17975430314530342475
12892183 10 17676497107557251353
13004483 165 17838892995058469303
13103583 49 16443639982324740161
13538477 17 18335425724147110013
13544653 18 13479146708654908773
13583140 156 17561075956131023514
13764800 53 17846227673701463771
13965767 371 17757003202846173665
14178342 30 18409443726249111058
14739800 52 18196932399771754952
15209294 21 18408038515896615264
15238133 3 18412553085045098160
15375358 24 16559030484748123464
15375462 189 17385718110786451192
15527383 91 16732988604434795420
15842332 3 17896892155823416374
1813 80 16877949274588268206
18186145 218 16200160854493569541
19433438 48 17896023477445117626
19862831 5 12319735843313116281
20388580 30 8429724186435275459
20871999 31 10231753358499324673
212916 134 18343016662399741483
21524375 3 18130227052116547911
21731228 192 18411704244861815763
231179 274 16630525142091824680
23382010 3 14404888160276281853
23402539 116 18200306741006640407
23493267 7 18200329791504929798
23503953 91 18333725840864100248
23557571 272 17631743775681101413
23559900 14 18129681711244405478
23598291 2 17968946417140912774
23622692 88 18113901541578736079
25 1 15482676749195698708
27216 239 17489300940664898089
4028521 119 15841550751932863577
495365 180 17346321436389570694
5352402 22 15936416615077098168
58807428 26 18335991857125212251
6992083 37 18040713692542551727
7097593 13 18187080650578292066
7615 1 18115306829134596476

> <PUBCHEM_SHAPE_MULTIPOLES>
368.42
8.56
2.25
1.52
2.2
1.53
0.37
-3.95
-4.32
-2.53
-0.05
0.79
-0.1
-1.04

> <PUBCHEM_SHAPE_SELFOVERLAP>
789.724

> <PUBCHEM_SHAPE_VOLUME>
205.9

> <PUBCHEM_COORDINATE_TYPE>
2
5
10

$$$$
71308139
  -OEChem-12271619483D

 39 40  0     1  0  0  0  0  0999 V2000
   -0.3272    2.7633   -0.5433 O   0  0  0  0  0  0  0  0  0  0  0  0
    1.4172    2.3283    0.8959 O   0  0  0  0  0  0  0  0  0  0  0  0
    2.8535    0.2579   -0.1011 N   0  0  0  0  0  0  0  0  0  0  0  0
    1.5422   -0.3605    0.1318 C   0  0  2  0  0  0  0  0  0  0  0  0
    1.4830   -1.7617   -0.4918 C   0  0  0  0  0  0  0  0  0  0  0  0
    0.4553    0.5356   -0.4594 C   0  0  1  0  0  0  0  0  0  0  0  0
    2.6122   -2.6466    0.0290 C   0  0  0  0  0  0  0  0  0  0  0  0
    3.9587   -1.9522   -0.1424 C   0  0  0  0  0  0  0  0  0  0  0  0
    3.9380   -0.5489    0.4589 C   0  0  0  0  0  0  0  0  0  0  0  0
   -0.9425   -0.0189   -0.2288 C   0  0  0  0  0  0  0  0  0  0  0  0
    0.5938    1.9590    0.0685 C   0  0  0  0  0  0  0  0  0  0  0  0
   -1.7499   -0.3494   -1.3172 C   0  0  0  0  0  0  0  0  0  0  0  0
   -1.4179   -0.1938    1.0709 C   0  0  0  0  0  0  0  0  0  0  0  0
   -3.0325   -0.8549   -1.1059 C   0  0  0  0  0  0  0  0  0  0  0  0
   -2.7006   -0.6993    1.2821 C   0  0  0  0  0  0  0  0  0  0  0  0
   -3.5079   -1.0300    0.1938 C   0  0  0  0  0  0  0  0  0  0  0  0
   -4.8798   -1.5699    0.4191 C   0  0  0  0  0  0  0  0  0  0  0  0
   -0.2958    4.1419   -0.1600 C   0  0  0  0  0  0  0  0  0  0  0  0
    1.3998   -0.4517    1.2176 H   0  0  0  0  0  0  0  0  0  0  0  0
    0.5328   -2.2578   -0.2653 H   0  0  0  0  0  0  0  0  0  0  0  0
    1.5560   -1.6938   -1.5853 H   0  0  0  0  0  0  0  0  0  0  0  0
    0.6346    0.6126   -1.5429 H   0  0  0  0  0  0  0  0  0  0  0  0
    2.6138   -3.6053   -0.5012 H   0  0  0  0  0  0  0  0  0  0  0  0
    2.4455   -2.8655    1.0910 H   0  0  0  0  0  0  0  0  0  0  0  0
    4.7459   -2.5482    0.3328 H   0  0  0  0  0  0  0  0  0  0  0  0
    4.2040   -1.8910   -1.2103 H   0  0  0  0  0  0  0  0  0  0  0  0
    2.8929    1.1829    0.3232 H   0  0  0  0  0  0  0  0  0  0  0  0
    3.8424   -0.6042    1.5502 H   0  0  0  0  0  0  0  0  0  0  0  0
    4.8923   -0.0547    0.2465 H   0  0  0  0  0  0  0  0  0  0  0  0
   -1.3931   -0.2188   -2.3353 H   0  0  0  0  0  0  0  0  0  0  0  0
   -0.8067    0.0649    1.9312 H   0  0  0  0  0  0  0  0  0  0  0  0
   -3.6515   -1.1103   -1.9619 H   0  0  0  0  0  0  0  0  0  0  0  0
   -3.0597   -0.8311    2.2993 H   0  0  0  0  0  0  0  0  0  0  0  0
   -4.8485   -2.6624    0.4778 H   0  0  0  0  0  0  0  0  0  0  0  0
   -5.3102   -1.1808    1.3481 H   0  0  0  0  0  0  0  0  0  0  0  0
   -5.5562   -1.2810   -0.3926 H   0  0  0  0  0  0  0  0  0  0  0  0
   -1.0743    4.6678   -0.7189 H   0  0  0  0  0  0  0  0  0  0  0  0
    0.6742    4.5823   -0.4096 H   0  0  0  0  0  0  0  0  0  0  0  0
   -0.5030    4.2419    0.9096 H   0  0  0  0  0  0  0  0  0  0  0  0
  1 11  1  0  0  0  0
  1 18  1  0  0  0  0
  2 11  2  0  0  0  0
  3  4  1  0  0  0  0
  3  9  1  0  0  0  0
  3 27  1  0  0  0  0
  4  5  1  0  0  0  0
  4  6  1  0  0  0  0
  4 19  1  0  0  0  0
  5  7  1  0  0  0  0
  5 20  1  0  0  0  0
  5 21  1  0  0  0  0
  6 10  1  0  0  0  0
  6 11  1  0  0  0  0
  6 22  1  0  0  0  0
  7  8  1  0  0  0  0
  7 23  1  0  0  0  0
  7 24  1  0  0  0  0
  8  9  1  0  0  0  0
  8 25  1  0  0  0  0
  8 26  1  0  0  0  0
  9 28  1  0  0  0  0
  9 29  1  0  0  0  0
 10 12  2  0  0  0  0
 10 13  1  0  0  0  0
 12 14  1  0  0  0  0
 12 30  1  0  0  0  0
 13 15  2  0  0  0  0
 13 31  1  0  0  0  0
 14 16  2  0  0  0  0
 14 32  1  0  0  0  0
 15 16  1  0  0  0  0
 15 33  1  0  0  0  0
 16 17  1  0  0  0  0
 17 34  1  0  0  0  0
 17 35  1  0  0  0  0
 17 36  1  0  0  0  0
 18 37  1  0  0  0  0
 18 38  1  0  0  0  0
 18 39  1  0  0  0  0
M  END
> <PUBCHEM_COMPOUND_CID>
71308139

> <PUBCHEM_CONFORMER_RMSD>
0.6

> <PUBCHEM_CONFORMER_DIVERSEORDER>
1
35
36
26
15
28
46
40
14
52
53
12
30
51
25
48
10
29
31
38
45
16
21
41
47
17
32
50
43
22
24
34
2
20
37
13
11
19
42
23
49
44
18
27
4
39
8
5
33
3
9
6
7

> <PUBCHEM_MMFF94_PARTIAL_CHARGES>
20
1 -0.43
10 -0.14
11 0.66
12 -0.15
13 -0.15
14 -0.15
15 -0.15
16 -0.14
17 0.14
18 0.28
2 -0.57
27 0.36
3 -0.9
30 0.15
31 0.15
32 0.15
33 0.15
4 0.27
6 0.2
9 0.27

> <PUBCHEM_EFFECTIVE_ROTOR_COUNT>
5.2

> <PUBCHEM_PHARMACOPHORE_FEATURES>
5
1 2 acceptor
1 3 cation
1 3 donor
6 10 12 13 14 15 16 rings
6 3 4 5 7 8 9 rings

> <PUBCHEM_HEAVY_ATOM_COUNT>
18

> <PUBCHEM_ATOM_DEF_STEREO_COUNT>
0

> <PUBCHEM_ATOM_UDEF_STEREO_COUNT>
2

> <PUBCHEM_BOND_DEF_STEREO_COUNT>
0

> <PUBCHEM_BOND_UDEF_STEREO_COUNT>
0

> <PUBCHEM_ISOTOPIC_ATOM_COUNT>
0

> <PUBCHEM_COMPONENT_COUNT>
1

> <PUBCHEM_CACTVS_TAUTO_COUNT>
1

> <PUBCHEM_CONFORMER_ID>
0440136B00000001

> <PUBCHEM_MMFF94_ENERGY>
33.3275

> <PUBCHEM_FEATURE_SELFOVERLAP>
25.372

> <PUBCHEM_SHAPE_FINGERPRINT>
10618630 7 18336267842912198254
11578080 2 17200757139275267953
11582403 64 15952376228650396213
12236239 1 17632301210949560731
12363563 72 18334862696863626474
12532896 13 17401482646069685788
12553582 1 18413102875060261270
12788726 201 18048025273210923545
13134695 92 18336826493539955589
13140716 1 18053660270677945338
13583140 156 13829551082775892542
14787075 74 18114748239137885362
14790565 3 18050015681469137028
15375462 189 18201998841397556666
15422964 175 18409451358041836870
15906896 17 17835233446350279789
16945 1 18341325703473190606
1813 80 18200891607508000454
18785283 64 17974009745343212401
19591789 44 17326907673263380004
20097449 115 18410575080399974508
20361792 2 18341610408302439175
20645477 70 18190454047032012395
20671657 53 18411705400134100419
21041028 32 18410859862907931869
21061003 4 18410293609865950263
21296965 67 18410011009475828751
2255824 54 18124320664150862701
23175994 123 18334016094769664623
23526113 38 17822014249951188011
23558518 356 17972044643597822586
23559900 14 18193274311679409299
23598288 3 18052250692355103286
23598291 2 17988077936575226903
23728640 28 17255954572604244370
2748010 2 18266715004923890220
3091708 16 9066836228703601344
31174 14 18190461756466354959
3286 77 18188775067069813911
3729539 64 17610657415326539836
458136 41 17686355565024490389
57672749 33 18270398416073698096
6443956 14 18408042931165193397
7364860 26 18193559097648558929
77492 1 17560241452379763663
81228 2 18118120277637894928
9709674 26 17837766730089507950

> <PUBCHEM_SHAPE_MULTIPOLES>
353.71
6.97
3.5
1.04
1.45
4.53
0
-6.53
-0.82
-1.08
0.12
0.66
-0.1
0.39

> <PUBCHEM_SHAPE_SELFOVERLAP>
732.522

> <PUBCHEM_SHAPE_VOLUME>
201

> <PUBCHEM_COORDINATE_TYPE>
2
5
10

$$$$
71316576
  -OEChem-12271618583D

 31 31  0     1  0  0  0  0  0999 V2000
    2.1007    1.5835   -0.8466 O   0  0  0  0  0  0  0  0  0  0  0  0
    3.3733   -1.0279   -0.4455 N   0  0  0  0  0  0  0  0  0  0  0  0
    2.5847   -0.3146    0.5611 C   0  0  2  0  0  0  0  0  0  0  0  0
    0.1821    0.4944   -0.0493 C   0  0  0  0  0  0  0  0  0  0  0  0
    1.6232    0.6513   -0.1652 C   0  0  0  0  0  0  0  0  0  0  0  0
   -2.5824    0.1922    0.1715 C   0  0  0  0  0  0  0  0  0  0  0  0
    3.5160    0.4599    1.4846 C   0  0  0  0  0  0  0  0  0  0  0  0
   -4.0604    0.0305    0.2901 C   0  0  0  0  0  0  0  0  0  0  0  0
   -0.6484    0.8850   -1.0997 C   0  0  0  0  0  0  0  0  0  0  0  0
   -0.3699   -0.0473    1.1116 C   0  0  0  0  0  0  0  0  0  0  0  0
   -2.0306    0.7340   -0.9894 C   0  0  0  0  0  0  0  0  0  0  0  0
   -1.7521   -0.1984    1.2221 C   0  0  0  0  0  0  0  0  0  0  0  0
   -4.5390   -1.3259   -0.2213 C   0  0  0  0  0  0  0  0  0  0  0  0
    2.6027   -2.1167   -1.0241 C   0  0  0  0  0  0  0  0  0  0  0  0
    2.0474   -1.0394    1.1783 H   0  0  0  0  0  0  0  0  0  0  0  0
    4.1365    1.1748    0.9318 H   0  0  0  0  0  0  0  0  0  0  0  0
    2.9387    1.0318    2.2197 H   0  0  0  0  0  0  0  0  0  0  0  0
    4.1831   -0.2148    2.0323 H   0  0  0  0  0  0  0  0  0  0  0  0
   -4.3680    0.1542    1.3360 H   0  0  0  0  0  0  0  0  0  0  0  0
   -4.5699    0.8287   -0.2642 H   0  0  0  0  0  0  0  0  0  0  0  0
   -0.2366    1.3040   -2.0142 H   0  0  0  0  0  0  0  0  0  0  0  0
    0.2388   -0.3305    1.9646 H   0  0  0  0  0  0  0  0  0  0  0  0
    4.2075   -1.4211   -0.0096 H   0  0  0  0  0  0  0  0  0  0  0  0
   -2.6667    1.0394   -1.8160 H   0  0  0  0  0  0  0  0  0  0  0  0
   -2.1706   -0.6162    2.1340 H   0  0  0  0  0  0  0  0  0  0  0  0
    1.7153   -1.7552   -1.5528 H   0  0  0  0  0  0  0  0  0  0  0  0
    2.2973   -2.8471   -0.2674 H   0  0  0  0  0  0  0  0  0  0  0  0
    3.2201   -2.6430   -1.7592 H   0  0  0  0  0  0  0  0  0  0  0  0
   -4.2863   -1.4623   -1.2782 H   0  0  0  0  0  0  0  0  0  0  0  0
   -5.6257   -1.4064   -0.1181 H   0  0  0  0  0  0  0  0  0  0  0  0
   -4.0816   -2.1457    0.3429 H   0  0  0  0  0  0  0  0  0  0  0  0
  1  5  2  0  0  0  0
  2  3  1  0  0  0  0
  2 14  1  0  0  0  0
  2 23  1  0  0  0  0
  3  5  1  0  0  0  0
  3  7  1  0  0  0  0
  3 15  1  0  0  0  0
  4  5  1  0  0  0  0
  4  9  2  0  0  0  0
  4 10  1  0  0  0  0
  6  8  1  0  0  0  0
  6 11  2  0  0  0  0
  6 12  1  0  0  0  0
  7 16  1  0  0  0  0
  7 17  1  0  0  0  0
  7 18  1  0  0  0  0
  8 13  1  0  0  0  0
  8 19  1  0  0  0  0
  8 20  1  0  0  0  0
  9 11  1  0  0  0  0
  9 21  1  0  0  0  0
 10 12  2  0  0  0  0
 10 22  1  0  0  0  0
 11 24  1  0  0  0  0
 12 25  1  0  0  0  0
 13 29  1  0  0  0  0
 13 30  1  0  0  0  0
 13 31  1  0  0  0  0
 14 26  1  0  0  0  0
 14 27  1  0  0  0  0
 14 28  1  0  0  0  0
M  END
> <PUBCHEM_COMPOUND_CID>
71316576

> <PUBCHEM_CONFORMER_RMSD>
0.6

> <PUBCHEM_CONFORMER_DIVERSEORDER>
1
67
65
39
57
62
42
64
25
13
33
58
47
63
40
26
6
68
34
36
51
61
29
18
20
24
49
46
59
43
19
41
4
38
56
27
11
54
48
45
53
16
8
50
10
22
35
14
55
31
5
12
9
28
17
21
37
60
66
3
44
32
30
23
52
7
15
2

> <PUBCHEM_MMFF94_PARTIAL_CHARGES>
17
1 -0.57
10 -0.15
11 -0.15
12 -0.15
14 0.27
2 -0.9
21 0.15
22 0.15
23 0.36
24 0.15
25 0.15
3 0.33
4 0.09
5 0.42
6 -0.14
8 0.14
9 -0.15

> <PUBCHEM_EFFECTIVE_ROTOR_COUNT>
4

> <PUBCHEM_PHARMACOPHORE_FEATURES>
5
1 1 acceptor
1 13 hydrophobe
1 2 cation
1 2 donor
6 4 6 9 10 11 12 rings

> <PUBCHEM_HEAVY_ATOM_COUNT>
14

> <PUBCHEM_ATOM_DEF_STEREO_COUNT>
0

> <PUBCHEM_ATOM_UDEF_STEREO_COUNT>
1

> <PUBCHEM_BOND_DEF_STEREO_COUNT>
0

> <PUBCHEM_BOND_UDEF_STEREO_COUNT>
0

> <PUBCHEM_ISOTOPIC_ATOM_COUNT>
0

> <PUBCHEM_COMPONENT_COUNT>
1

> <PUBCHEM_CACTVS_TAUTO_COUNT>
7

> <PUBCHEM_CONFORMER_ID>
0440346000000001

> <PUBCHEM_MMFF94_ENERGY>
30.9936

> <PUBCHEM_FEATURE_SELFOVERLAP>
25.371

> <PUBCHEM_SHAPE_FINGERPRINT>
11206711 2 16877937201208066501
11769659 78 18272932726346844615
12032990 46 17095246947243866849
12251169 10 15482664650715800922
12670546 56 17845937325707532817
13296908 3 18338513036907640884
13583140 156 17632566150602764961
13675066 3 18060416889704973129
13705890 14 18413107268637374179
13760787 5 15647053738017630929
14252887 29 18410575076347509690
14289901 80 18131354145850303697
14350558 41 18273218594605620126
14911166 2 16660642977490086987
14993402 34 14851610968233806055
15375462 189 16630234866168254227
15848700 24 17894908537988657829
16945 1 17458347407541458617
18186145 218 17240203248714044181
19026448 4 18273208673563443249
19026448 5 18272098218628061345
200 152 18187916314075716529
20201158 50 18040437672300887914
20279233 1 17749392576557493616
20645477 70 18187929520889389023
20671657 53 17240479234696287597
212847 35 11023842668540745847
21501925 9 18040425620601725104
22445834 79 17059214735414861030
22485316 2 17846493751552844499
23048698 100 17060618888951363162
23402539 116 17821993320855122573
2748010 2 16807313524825084417
42 15 17846782879723446283
474 4 17201620367793703152
4990 188 17967811652658798127
57812782 119 18259700107963936433
581208 293 18410012156306021274
69090 78 18041273369999905763
7364860 26 18188219817850622172

> <PUBCHEM_SHAPE_MULTIPOLES>
277.26
7.41
1.44
1.29
3.38
0.82
0.1
2.44
0.91
-0.95
-0.46
-0.34
-0.22
0.54

> <PUBCHEM_SHAPE_SELFOVERLAP>
561.092

> <PUBCHEM_SHAPE_VOLUME>
163.1

> <PUBCHEM_COORDINATE_TYPE>
2
5
10

$$$$
71316821
  -OEChem-12271618403D

 25 25  0     1  0  0  0  0  0999 V2000
   -1.1143   -2.2363    0.0167 F   0  0  0  0  0  0  0  0  0  0  0  0
    1.1305   -1.4136   -1.0822 O   0  0  0  0  0  0  0  0  0  0  0  0
    2.8812   -0.0563    0.8393 N   0  0  0  0  0  0  0  0  0  0  0  0
    2.0366    0.6177   -0.1487 C   0  0  2  0  0  0  0  0  0  0  0  0
    0.8733   -0.3263   -0.5228 C   0  0  0  0  0  0  0  0  0  0  0  0
    2.8635    0.9542   -1.3828 C   0  0  0  0  0  0  0  0  0  0  0  0
   -0.5056    0.0449   -0.2459 C   0  0  0  0  0  0  0  0  0  0  0  0
   -1.4575   -0.9401    0.0164 C   0  0  0  0  0  0  0  0  0  0  0  0
   -0.8748    1.3900   -0.2430 C   0  0  0  0  0  0  0  0  0  0  0  0
    2.2898    0.0308    2.1648 C   0  0  0  0  0  0  0  0  0  0  0  0
   -2.7788   -0.5802    0.2816 C   0  0  0  0  0  0  0  0  0  0  0  0
   -2.1960    1.7501    0.0222 C   0  0  0  0  0  0  0  0  0  0  0  0
   -3.1481    0.7650    0.2845 C   0  0  0  0  0  0  0  0  0  0  0  0
    1.6794    1.5630    0.2680 H   0  0  0  0  0  0  0  0  0  0  0  0
    3.3085    0.0588   -1.8321 H   0  0  0  0  0  0  0  0  0  0  0  0
    2.2360    1.4238   -2.1485 H   0  0  0  0  0  0  0  0  0  0  0  0
    3.6743    1.6498   -1.1397 H   0  0  0  0  0  0  0  0  0  0  0  0
    3.7977    0.3909    0.8665 H   0  0  0  0  0  0  0  0  0  0  0  0
   -0.1734    2.1843   -0.4782 H   0  0  0  0  0  0  0  0  0  0  0  0
    1.3216   -0.4767    2.2158 H   0  0  0  0  0  0  0  0  0  0  0  0
    2.1685    1.0696    2.4896 H   0  0  0  0  0  0  0  0  0  0  0  0
    2.9485   -0.4646    2.8854 H   0  0  0  0  0  0  0  0  0  0  0  0
   -3.5198   -1.3474    0.4854 H   0  0  0  0  0  0  0  0  0  0  0  0
   -2.4859    2.7968    0.0162 H   0  0  0  0  0  0  0  0  0  0  0  0
   -4.1773    1.0451    0.4890 H   0  0  0  0  0  0  0  0  0  0  0  0
  1  8  1  0  0  0  0
  2  5  2  0  0  0  0
  3  4  1  0  0  0  0
  3 10  1  0  0  0  0
  3 18  1  0  0  0  0
  4  5  1  0  0  0  0
  4  6  1  0  0  0  0
  4 14  1  0  0  0  0
  5  7  1  0  0  0  0
  6 15  1  0  0  0  0
  6 16  1  0  0  0  0
  6 17  1  0  0  0  0
  7  8  1  0  0  0  0
  7  9  2  0  0  0  0
  8 11  2  0  0  0  0
  9 12  1  0  0  0  0
  9 19  1  0  0  0  0
 10 20  1  0  0  0  0
 10 21  1  0  0  0  0
 10 22  1  0  0  0  0
 11 13  1  0  0  0  0
 11 23  1  0  0  0  0
 12 13  2  0  0  0  0
 12 24  1  0  0  0  0
 13 25  1  0  0  0  0
M  END
> <PUBCHEM_COMPOUND_CID>
71316821

> <PUBCHEM_CONFORMER_RMSD>
0.6

> <PUBCHEM_CONFORMER_DIVERSEORDER>
1
21
22
17
40
41
44
42
20
46
3
34
6
27
5
39
37
14
16
2
31
23
13
19
29
18
43
8
35
28
12
11
33
9
45
36
38
32
15
24
7
26
4
25
30
10
47

> <PUBCHEM_MMFF94_PARTIAL_CHARGES>
17
1 -0.19
10 0.27
11 -0.15
12 -0.15
13 -0.15
18 0.36
19 0.15
2 -0.57
23 0.15
24 0.15
25 0.15
3 -0.9
4 0.33
5 0.42
7 0.09
8 0.19
9 -0.15

> <PUBCHEM_EFFECTIVE_ROTOR_COUNT>
3

> <PUBCHEM_PHARMACOPHORE_FEATURES>
4
1 2 acceptor
1 3 cation
1 3 donor
6 7 8 9 11 12 13 rings

> <PUBCHEM_HEAVY_ATOM_COUNT>
13

> <PUBCHEM_ATOM_DEF_STEREO_COUNT>
0

> <PUBCHEM_ATOM_UDEF_STEREO_COUNT>
1

> <PUBCHEM_BOND_DEF_STEREO_COUNT>
0

> <PUBCHEM_BOND_UDEF_STEREO_COUNT>
0

> <PUBCHEM_ISOTOPIC_ATOM_COUNT>
0

> <PUBCHEM_COMPONENT_COUNT>
1

> <PUBCHEM_CACTVS_TAUTO_COUNT>
2

> <PUBCHEM_CONFORMER_ID>
0440355500000001

> <PUBCHEM_MMFF94_ENERGY>
29.083

> <PUBCHEM_FEATURE_SELFOVERLAP>
20.297

> <PUBCHEM_SHAPE_FINGERPRINT>
10857977 72 18341894116952176953
12251169 10 18333724724056597592
12423570 1 9103448690281779438
12932764 1 17489872617923286637
13538477 17 18115024220302388974
15669948 3 18336549433557419087
15775835 57 17894920623984807476
16945 1 18342459274497585517
17846911 113 18341607093020300657
18186145 218 17060341777862086609
20645464 45 17775276175217739873
20871998 184 18198918083142157055
21028194 46 18130784525485630176
22445834 79 17386277706011699096
230 275 18340204068468859917
23236772 104 17750528444877928980
23402539 116 18341314670256147423
23598294 1 18190749819559251915
25610 171 18343015640049903489
2748010 2 18267315222634911055
3248919 1 18409165485218724525
369184 2 17022620883881990341
5084963 1 18127701430525441165
7364860 26 17840866270305529791
77492 1 17749389286417463160
81228 2 17341801580126680430

> <PUBCHEM_SHAPE_MULTIPOLES>
249.41
4.88
1.65
1.3
0.22
0.22
-0.58
-0.99
-0.73
-0.78
0.28
1.48
0.07
-0.43

> <PUBCHEM_SHAPE_SELFOVERLAP>
512.678

> <PUBCHEM_SHAPE_VOLUME>
144.5

> <PUBCHEM_COORDINATE_TYPE>
2
5
10

$$$$
5666
  -OEChem-12271620033D

 36 37  0     1  0  0  0  0  0999 V2000
   -2.0199    0.4911    0.0871 O   0  0  0  0  0  0  0  0  0  0  0  0
    0.2316   -0.8797    0.9035 O   0  0  0  0  0  0  0  0  0  0  0  0
    1.4241    1.6037    0.5335 O   0  0  0  0  0  0  0  0  0  0  0  0
   -4.4687   -0.9115   -0.2746 N   0  0  0  0  0  0  0  0  0  0  0  0
   -2.0949   -0.9128    0.3623 C   0  0  1  0  0  0  0  0  0  0  0  0
   -3.1746   -1.5552   -0.5131 C   0  0  0  0  0  0  0  0  0  0  0  0
   -4.3678    0.5290   -0.5145 C   0  0  0  0  0  0  0  0  0  0  0  0
   -0.7268   -1.5165    0.0766 C   0  0  0  0  0  0  0  0  0  0  0  0
   -3.2689    1.1322    0.3512 C   0  0  0  0  0  0  0  0  0  0  0  0
    1.5110   -0.7860    0.4151 C   0  0  0  0  0  0  0  0  0  0  0  0
    2.0994    0.4596    0.2325 C   0  0  0  0  0  0  0  0  0  0  0  0
    2.2036   -1.9509    0.1070 C   0  0  0  0  0  0  0  0  0  0  0  0
    3.3998    0.5416   -0.2655 C   0  0  0  0  0  0  0  0  0  0  0  0
    3.5039   -1.8687   -0.3912 C   0  0  0  0  0  0  0  0  0  0  0  0
    4.1020   -0.6226   -0.5774 C   0  0  0  0  0  0  0  0  0  0  0  0
    1.2099    2.5289   -0.5306 C   0  0  0  0  0  0  0  0  0  0  0  0
    0.4361    3.7178   -0.0019 C   0  0  0  0  0  0  0  0  0  0  0  0
   -2.3237   -1.0386    1.4292 H   0  0  0  0  0  0  0  0  0  0  0  0
   -2.9213   -1.4599   -1.5763 H   0  0  0  0  0  0  0  0  0  0  0  0
   -3.2585   -2.6250   -0.2931 H   0  0  0  0  0  0  0  0  0  0  0  0
   -5.3280    1.0056   -0.2921 H   0  0  0  0  0  0  0  0  0  0  0  0
   -4.1532    0.7025   -1.5757 H   0  0  0  0  0  0  0  0  0  0  0  0
   -0.4735   -1.3650   -0.9813 H   0  0  0  0  0  0  0  0  0  0  0  0
   -0.7311   -2.5912    0.2904 H   0  0  0  0  0  0  0  0  0  0  0  0
   -3.1517    2.1952    0.1177 H   0  0  0  0  0  0  0  0  0  0  0  0
   -3.5027    1.0519    1.4197 H   0  0  0  0  0  0  0  0  0  0  0  0
   -4.7395   -1.0660    0.6970 H   0  0  0  0  0  0  0  0  0  0  0  0
    1.7526   -2.9279    0.2552 H   0  0  0  0  0  0  0  0  0  0  0  0
    3.8900    1.5015   -0.4007 H   0  0  0  0  0  0  0  0  0  0  0  0
    4.0518   -2.7752   -0.6313 H   0  0  0  0  0  0  0  0  0  0  0  0
    5.1162   -0.5591   -0.9609 H   0  0  0  0  0  0  0  0  0  0  0  0
    2.1629    2.8821   -0.9385 H   0  0  0  0  0  0  0  0  0  0  0  0
    0.6397    2.0412   -1.3300 H   0  0  0  0  0  0  0  0  0  0  0  0
    0.2472    4.4462   -0.7955 H   0  0  0  0  0  0  0  0  0  0  0  0
   -0.5229    3.3971    0.4185 H   0  0  0  0  0  0  0  0  0  0  0  0
    0.9887    4.2096    0.8054 H   0  0  0  0  0  0  0  0  0  0  0  0
  1  5  1  0  0  0  0
  1  9  1  0  0  0  0
  2  8  1  0  0  0  0
  2 10  1  0  0  0  0
  3 11  1  0  0  0  0
  3 16  1  0  0  0  0
  4  6  1  0  0  0  0
  4  7  1  0  0  0  0
  4 27  1  0  0  0  0
  5  6  1  0  0  0  0
  5  8  1  0  0  0  0
  5 18  1  0  0  0  0
  6 19  1  0  0  0  0
  6 20  1  0  0  0  0
  7  9  1  0  0  0  0
  7 21  1  0  0  0  0
  7 22  1  0  0  0  0
  8 23  1  0  0  0  0
  8 24  1  0  0  0  0
  9 25  1  0  0  0  0
  9 26  1  0  0  0  0
 10 11  1  0  0  0  0
 10 12  2  0  0  0  0
 11 13  2  0  0  0  0
 12 14  1  0  0  0  0
 12 28  1  0  0  0  0
 13 15  1  0  0  0  0
 13 29  1  0  0  0  0
 14 15  2  0  0  0  0
 14 30  1  0  0  0  0
 15 31  1  0  0  0  0
 16 17  1  0  0  0  0
 16 32  1  0  0  0  0
 16 33  1  0  0  0  0
 17 34  1  0  0  0  0
 17 35  1  0  0  0  0
 17 36  1  0  0  0  0
M  END
> <PUBCHEM_COMPOUND_CID>
5666

> <PUBCHEM_CONFORMER_RMSD>
0.8

> <PUBCHEM_CONFORMER_DIVERSEORDER>
1
80
8
92
46
33
101
44
72
19
133
17
23
141
109
111
123
71
87
18
45
16
56
113
125
49
9
84
69
107
98
135
119
140
70
90
58
94
12
65
108
95
67
146
61
27
145
127
11
63
99
100
138
130
41
144
15
38
62
105
88
91
47
35
6
115
50
116
20
75
7
2
66
64
57
112
97
126
53
118
76
77
22
13
60
128
132
136
37
93
5
3
48
114
143
31
142
85
26
73
131
10
81
110
103
39
43
104
78
54
52
102
137
124
86
51
4
139
129
14
36
89
122
106
28
32
34
68
59
79
24
134
55
121
120
74
82
29
96
30
83
40
25
42
117
21

> <PUBCHEM_MMFF94_PARTIAL_CHARGES>
21
1 -0.56
10 0.08
11 0.08
12 -0.15
13 -0.15
14 -0.15
15 -0.15
16 0.28
2 -0.36
27 0.36
28 0.15
29 0.15
3 -0.36
30 0.15
31 0.15
4 -0.9
5 0.28
6 0.27
7 0.27
8 0.28
9 0.28

> <PUBCHEM_EFFECTIVE_ROTOR_COUNT>
6.2

> <PUBCHEM_PHARMACOPHORE_FEATURES>
7
1 1 acceptor
1 2 acceptor
1 3 acceptor
1 4 cation
1 4 donor
6 1 4 5 6 7 9 rings
6 10 11 12 13 14 15 rings

> <PUBCHEM_HEAVY_ATOM_COUNT>
17

> <PUBCHEM_ATOM_DEF_STEREO_COUNT>
0

> <PUBCHEM_ATOM_UDEF_STEREO_COUNT>
1

> <PUBCHEM_BOND_DEF_STEREO_COUNT>
0

> <PUBCHEM_BOND_UDEF_STEREO_COUNT>
0

> <PUBCHEM_ISOTOPIC_ATOM_COUNT>
0

> <PUBCHEM_COMPONENT_COUNT>
1

> <PUBCHEM_CACTVS_TAUTO_COUNT>
1

> <PUBCHEM_CONFORMER_ID>
0000162200000001

> <PUBCHEM_MMFF94_ENERGY>
49.6306

> <PUBCHEM_FEATURE_SELFOVERLAP>
35.53

> <PUBCHEM_SHAPE_FINGERPRINT>
104564 63 18050290271491056400
11471102 20 18409729560611936678
116883 192 18125164827499530814
138480 1 18338797922031096285
14250199 8 18337954626913966997
14648413 74 18119533382139163962
15196674 1 18411138021742167341
15210252 30 17894639140803466716
15442244 35 18340488859144479394
15536298 74 18342454880514037025
15848700 24 18411979135737856372
17041 50 18409444782557189269
18186145 218 18261100886073401419
19591789 44 16394940133838427113
20233049 118 18187083953571601588
20606313 2 18410292527697754390
20645477 70 18271528611090820214
20671657 1 18267871755564722837
221357 26 18408598141898848997
221490 88 18264495155376915315
22289505 5 18334847286668246141
23402539 116 18341045225367002390
23402655 69 18412263913075127102
23559900 14 18340759455501915587
3060560 45 18273214205518620918
4028521 119 18187639168452511703
5939293 188 18337383950346437984
7164475 11 18047754802536790350
7364860 26 18268429216534108968
7832392 63 18411698772883414185
81228 2 18191598449789692496
93112 12 18412543236510833063
9709674 26 18264768946915732595
9981440 41 17474099281693861944

> <PUBCHEM_SHAPE_MULTIPOLES>
327.26
8.02
3.07
0.76
4.88
3.17
0
-2.58
1.65
-1.05
0.16
-0.02
-0.03
-0.09

> <PUBCHEM_SHAPE_SELFOVERLAP>
670.254

> <PUBCHEM_SHAPE_VOLUME>
188.8

> <PUBCHEM_COORDINATE_TYPE>
2
5
10

$$$$
71721462
  -OEChem-12271619363D

 35 36  0     1  0  0  0  0  0999 V2000
    3.0590   -0.7047    1.1851 S   0  0  0  0  0  0  0  0  0  0  0  0
    0.3899    0.2637    1.9552 O   0  0  0  0  0  0  0  0  0  0  0  0
   -1.7861   -0.4092    0.2001 N   0  0  0  0  0  0  0  0  0  0  0  0
   -0.6992    0.4773   -0.1884 C   0  0  1  0  0  0  0  0  0  0  0  0
   -1.4461   -1.8205    0.0225 C   0  0  0  0  0  0  0  0  0  0  0  0
   -2.9892   -0.2040   -0.6060 C   0  0  0  0  0  0  0  0  0  0  0  0
   -3.8138   -1.4484   -0.3112 C   0  0  0  0  0  0  0  0  0  0  0  0
   -2.8000   -2.5097    0.1053 C   0  0  0  0  0  0  0  0  0  0  0  0
   -1.1470    1.9378   -0.0201 C   0  0  0  0  0  0  0  0  0  0  0  0
    0.4702    0.1454    0.7333 C   0  0  0  0  0  0  0  0  0  0  0  0
   -0.0258    2.9270   -0.3558 C   0  0  0  0  0  0  0  0  0  0  0  0
    1.7503   -0.3341    0.1447 C   0  0  0  0  0  0  0  0  0  0  0  0
   -0.4923    4.3667   -0.2059 C   0  0  0  0  0  0  0  0  0  0  0  0
    2.0688   -0.5391   -1.1797 C   0  0  0  0  0  0  0  0  0  0  0  0
    3.4047   -1.0069   -1.3425 C   0  0  0  0  0  0  0  0  0  0  0  0
    4.0564   -1.1414   -0.1364 C   0  0  0  0  0  0  0  0  0  0  0  0
   -0.4354    0.3212   -1.2378 H   0  0  0  0  0  0  0  0  0  0  0  0
   -3.5533    0.6891   -0.3205 H   0  0  0  0  0  0  0  0  0  0  0  0
   -0.9967   -2.0130   -0.9604 H   0  0  0  0  0  0  0  0  0  0  0  0
   -2.7629   -0.1559   -1.6790 H   0  0  0  0  0  0  0  0  0  0  0  0
   -0.7743   -2.2043    0.7969 H   0  0  0  0  0  0  0  0  0  0  0  0
   -4.3926   -1.7625   -1.1858 H   0  0  0  0  0  0  0  0  0  0  0  0
   -4.5172   -1.2660    0.5097 H   0  0  0  0  0  0  0  0  0  0  0  0
   -3.0083   -2.8383    1.1303 H   0  0  0  0  0  0  0  0  0  0  0  0
   -2.8436   -3.3893   -0.5449 H   0  0  0  0  0  0  0  0  0  0  0  0
   -1.4831    2.1181    1.0098 H   0  0  0  0  0  0  0  0  0  0  0  0
   -1.9907    2.1673   -0.6811 H   0  0  0  0  0  0  0  0  0  0  0  0
    0.3175    2.7644   -1.3841 H   0  0  0  0  0  0  0  0  0  0  0  0
    0.8351    2.7717    0.3035 H   0  0  0  0  0  0  0  0  0  0  0  0
   -0.8136    4.5701    0.8205 H   0  0  0  0  0  0  0  0  0  0  0  0
    0.3221    5.0561   -0.4499 H   0  0  0  0  0  0  0  0  0  0  0  0
   -1.3299    4.5802   -0.8775 H   0  0  0  0  0  0  0  0  0  0  0  0
    1.4004   -0.3721   -2.0131 H   0  0  0  0  0  0  0  0  0  0  0  0
    3.8644   -1.2334   -2.2957 H   0  0  0  0  0  0  0  0  0  0  0  0
    5.0706   -1.4752    0.0318 H   0  0  0  0  0  0  0  0  0  0  0  0
  1 12  1  0  0  0  0
  1 16  1  0  0  0  0
  2 10  2  0  0  0  0
  3  4  1  0  0  0  0
  3  5  1  0  0  0  0
  3  6  1  0  0  0  0
  4  9  1  0  0  0  0
  4 10  1  0  0  0  0
  4 17  1  0  0  0  0
  5  8  1  0  0  0  0
  5 19  1  0  0  0  0
  5 21  1  0  0  0  0
  6  7  1  0  0  0  0
  6 18  1  0  0  0  0
  6 20  1  0  0  0  0
  7  8  1  0  0  0  0
  7 22  1  0  0  0  0
  7 23  1  0  0  0  0
  8 24  1  0  0  0  0
  8 25  1  0  0  0  0
  9 11  1  0  0  0  0
  9 26  1  0  0  0  0
  9 27  1  0  0  0  0
 10 12  1  0  0  0  0
 11 13  1  0  0  0  0
 11 28  1  0  0  0  0
 11 29  1  0  0  0  0
 12 14  2  0  0  0  0
 13 30  1  0  0  0  0
 13 31  1  0  0  0  0
 13 32  1  0  0  0  0
 14 15  1  0  0  0  0
 14 33  1  0  0  0  0
 15 16  2  0  0  0  0
 15 34  1  0  0  0  0
 16 35  1  0  0  0  0
M  END
> <PUBCHEM_COMPOUND_CID>
71721462

> <PUBCHEM_CONFORMER_RMSD>
0.8

> <PUBCHEM_CONFORMER_DIVERSEORDER>
1
61
55
36
32
34
35
58
60
47
42
54
52
59
38
29
27
56
39
33
18
5
22
50
28
25
31
57
44
24
15
13
19
40
43
10
51
37
30
26
45
21
12
6
53
3
41
48
11
16
46
8
49
14
7
23
20
17
4
2
9

> <PUBCHEM_MMFF94_PARTIAL_CHARGES>
14
1 -0.08
10 0.59
12 -0.05
14 -0.15
15 -0.15
16 -0.11
2 -0.57
3 -0.81
33 0.15
34 0.15
35 0.15
4 0.33
5 0.27
6 0.27

> <PUBCHEM_EFFECTIVE_ROTOR_COUNT>
6

> <PUBCHEM_PHARMACOPHORE_FEATURES>
5
1 13 hydrophobe
1 2 acceptor
1 3 cation
5 1 12 14 15 16 rings
5 3 5 6 7 8 rings

> <PUBCHEM_HEAVY_ATOM_COUNT>
16

> <PUBCHEM_ATOM_DEF_STEREO_COUNT>
0

> <PUBCHEM_ATOM_UDEF_STEREO_COUNT>
1

> <PUBCHEM_BOND_DEF_STEREO_COUNT>
0

> <PUBCHEM_BOND_UDEF_STEREO_COUNT>
0

> <PUBCHEM_ISOTOPIC_ATOM_COUNT>
0

> <PUBCHEM_COMPONENT_COUNT>
1

> <PUBCHEM_CACTVS_TAUTO_COUNT>
2

> <PUBCHEM_CONFORMER_ID>
044661F600000001

> <PUBCHEM_MMFF94_ENERGY>
20.8938

> <PUBCHEM_FEATURE_SELFOVERLAP>
25.372

> <PUBCHEM_SHAPE_FINGERPRINT>
1 1 17473261453907160693
11578080 2 16881277594584556172
11582403 64 15898332685187349328
11833330 49 18335979783571404620
12173636 292 17905604406752466516
12500047 106 17907012877411504846
12553582 1 18408608067151830699
12707595 3 18262799704310335203
12788726 201 18261680263917709226
13583140 156 17770183152403242866
13681431 1 18196657512641210921
13955234 65 17763751283915586675
14004458 79 18338811000200822572
14648413 74 18049158066867284627
14817 1 17616479122619510688
15502708 8 18267586805875021620
15502722 9 17833554878826202261
15906896 17 17827096020827706448
16752209 62 18189036617555828471
16945 1 18338235938375991282
17041 50 18335971073852086031
17134986 127 17183065739386106700
1813 80 18341907315302281455
18186145 218 14056714638971349966
20339313 130 18268153226388650587
20361792 2 18340486763358999823
20600515 1 18200604686375627487
20645477 70 17833259102083922783
20671657 53 18339928215731089615
20693207 138 17630060265072062758
20711985 344 18338795589831478633
20871999 31 18335137587987437775
21061003 4 16917345931225278002
21285901 2 18058732390741409485
21452121 199 18055063522139712611
21524375 3 17322116624201930680
22112679 90 18266485181181488141
228727 97 17748829583527785674
23382010 3 16443910616439712747
23402539 116 18339633456320292966
23419403 2 17845348060052087129
23557571 272 18412535497243380000
23559900 14 18341607058987681202
23598294 1 18191022309427241769
25 1 12540964179833677742
2748010 2 18268691948410436593
305870 269 9438863654488316039
3071541 250 18265060308796057541
314173 41 18337676441809047099
5902787 121 18263638631439579339
6442390 28 17622174464213952497
7364860 26 17979354497283328341
7615 1 17749954328689753772
77492 1 17458624458812617506
81228 2 18341337686579795657
84936 31 17700126900611958352
88987 49 18121495757345172720

> <PUBCHEM_SHAPE_MULTIPOLES>
322.27
6.02
3.6
1.18
2.01
5.54
0.22
-5.28
-1.05
-2.55
-0.38
0.91
-0.17
0.2

> <PUBCHEM_SHAPE_SELFOVERLAP>
647.663

> <PUBCHEM_SHAPE_VOLUME>
191.1

> <PUBCHEM_COORDINATE_TYPE>
2
5
10

$$$$
71750237
  -OEChem-12271619033D

 31 31  0     1  0  0  0  0  0999 V2000
   -1.4153   -0.5566   -1.7951 O   0  0  0  0  0  0  0  0  0  0  0  0
   -2.8657   -1.1656    0.6162 N   0  0  0  0  0  0  0  0  0  0  0  0
   -2.1005    0.0665    0.4338 C   0  0  2  0  0  0  0  0  0  0  0  0
   -3.0513    1.2001    0.0222 C   0  0  0  0  0  0  0  0  0  0  0  0
   -1.0774   -0.2253   -0.6596 C   0  0  0  0  0  0  0  0  0  0  0  0
    0.3740   -0.1059   -0.3523 C   0  0  0  0  0  0  0  0  0  0  0  0
   -2.3194    2.5202   -0.1871 C   0  0  0  0  0  0  0  0  0  0  0  0
    0.8116    0.8074    0.6070 C   0  0  0  0  0  0  0  0  0  0  0  0
    1.2970   -0.9070   -1.0245 C   0  0  0  0  0  0  0  0  0  0  0  0
   -2.1262   -2.1159    1.4325 C   0  0  0  0  0  0  0  0  0  0  0  0
    3.0948    0.1185    0.2216 C   0  0  0  0  0  0  0  0  0  0  0  0
    2.1718    0.9197    0.8940 C   0  0  0  0  0  0  0  0  0  0  0  0
    2.6573   -0.7948   -0.7377 C   0  0  0  0  0  0  0  0  0  0  0  0
    4.5493    0.2388    0.5289 C   0  0  0  0  0  0  0  0  0  0  0  0
   -1.6357    0.3453    1.3834 H   0  0  0  0  0  0  0  0  0  0  0  0
   -3.5775    0.9436   -0.9062 H   0  0  0  0  0  0  0  0  0  0  0  0
   -3.8175    1.3438    0.7945 H   0  0  0  0  0  0  0  0  0  0  0  0
   -3.7455   -0.9554    1.0877 H   0  0  0  0  0  0  0  0  0  0  0  0
   -1.8103    2.8369    0.7282 H   0  0  0  0  0  0  0  0  0  0  0  0
   -3.0356    3.3034   -0.4567 H   0  0  0  0  0  0  0  0  0  0  0  0
   -1.5836    2.4543   -0.9939 H   0  0  0  0  0  0  0  0  0  0  0  0
    0.1320    1.4669    1.1351 H   0  0  0  0  0  0  0  0  0  0  0  0
    0.9742   -1.6279   -1.7710 H   0  0  0  0  0  0  0  0  0  0  0  0
   -1.1930   -2.4311    0.9557 H   0  0  0  0  0  0  0  0  0  0  0  0
   -2.7326   -3.0169    1.5715 H   0  0  0  0  0  0  0  0  0  0  0  0
   -1.9038   -1.7131    2.4263 H   0  0  0  0  0  0  0  0  0  0  0  0
    2.5012    1.6374    1.6407 H   0  0  0  0  0  0  0  0  0  0  0  0
    3.3665   -1.4265   -1.2660 H   0  0  0  0  0  0  0  0  0  0  0  0
    4.8197   -0.4452    1.3395 H   0  0  0  0  0  0  0  0  0  0  0  0
    5.1599    0.0013   -0.3489 H   0  0  0  0  0  0  0  0  0  0  0  0
    4.8061    1.2600    0.8305 H   0  0  0  0  0  0  0  0  0  0  0  0
  1  5  2  0  0  0  0
  2  3  1  0  0  0  0
  2 10  1  0  0  0  0
  2 18  1  0  0  0  0
  3  4  1  0  0  0  0
  3  5  1  0  0  0  0
  3 15  1  0  0  0  0
  4  7  1  0  0  0  0
  4 16  1  0  0  0  0
  4 17  1  0  0  0  0
  5  6  1  0  0  0  0
  6  8  2  0  0  0  0
  6  9  1  0  0  0  0
  7 19  1  0  0  0  0
  7 20  1  0  0  0  0
  7 21  1  0  0  0  0
  8 12  1  0  0  0  0
  8 22  1  0  0  0  0
  9 13  2  0  0  0  0
  9 23  1  0  0  0  0
 10 24  1  0  0  0  0
 10 25  1  0  0  0  0
 10 26  1  0  0  0  0
 11 12  2  0  0  0  0
 11 13  1  0  0  0  0
 11 14  1  0  0  0  0
 12 27  1  0  0  0  0
 13 28  1  0  0  0  0
 14 29  1  0  0  0  0
 14 30  1  0  0  0  0
 14 31  1  0  0  0  0
M  END
> <PUBCHEM_COMPOUND_CID>
71750237

> <PUBCHEM_CONFORMER_RMSD>
0.6

> <PUBCHEM_CONFORMER_DIVERSEORDER>
2
32
7
28
41
38
15
35
42
23
34
20
6
24
33
1
29
49
43
37
17
39
18
4
16
14
21
48
40
45
31
26
44
25
5
47
11
36
13
22
19
46
10
30
27
8
3
9
12

> <PUBCHEM_MMFF94_PARTIAL_CHARGES>
17
1 -0.57
10 0.27
11 -0.14
12 -0.15
13 -0.15
14 0.14
18 0.36
2 -0.9
22 0.15
23 0.15
27 0.15
28 0.15
3 0.33
5 0.42
6 0.09
8 -0.15
9 -0.15

> <PUBCHEM_EFFECTIVE_ROTOR_COUNT>
4

> <PUBCHEM_PHARMACOPHORE_FEATURES>
5
1 1 acceptor
1 2 cation
1 2 donor
1 7 hydrophobe
6 6 8 9 11 12 13 rings

> <PUBCHEM_HEAVY_ATOM_COUNT>
14

> <PUBCHEM_ATOM_DEF_STEREO_COUNT>
0

> <PUBCHEM_ATOM_UDEF_STEREO_COUNT>
1

> <PUBCHEM_BOND_DEF_STEREO_COUNT>
0

> <PUBCHEM_BOND_UDEF_STEREO_COUNT>
0

> <PUBCHEM_ISOTOPIC_ATOM_COUNT>
0

> <PUBCHEM_COMPONENT_COUNT>
1

> <PUBCHEM_CACTVS_TAUTO_COUNT>
7

> <PUBCHEM_CONFORMER_ID>
0446D25D00000002

> <PUBCHEM_MMFF94_ENERGY>
30.1027

> <PUBCHEM_FEATURE_SELFOVERLAP>
25.371

> <PUBCHEM_SHAPE_FINGERPRINT>
10608611 8 18271804596977662776
10922523 26 18202284675976887676
11471102 22 18130235955257029698
124424 183 18271238322919572624
12500047 106 18187923937104609827
12932764 1 17775002418655917212
13214271 11 18412260649179492044
13294875 104 17472964113442474017
13296908 3 18131359578962957294
13675066 3 18273492373733919034
14144814 61 16558754503103045354
14289901 80 18041284361063919824
15219456 202 18201723903439821612
15279308 16 18343301435700436020
15309172 13 17203616994545959654
15653759 3 18411423920561592848
15775835 57 17418091026894509453
16945 1 18188787075492119509
17844478 74 18342184400611302209
18186145 218 16773795952667032776
18219364 16 17561365092827775578
19026448 5 17603871109220958972
19049666 15 18196946482372704699
20279233 1 18342179955325529418
20645477 70 17417532389589426846
20715346 28 18130798836321935390
21524375 3 17980194189376089901
2306618 200 17203605999735435683
23402539 116 18408595968803529181
23402655 69 17416954037778345205
23493267 7 18337954489548938360
23559900 14 18265902363563923998
25 1 17769096735598034149
27216 239 18273490191273724545
2748010 2 17916877802756542492
305870 269 17826226290324767025
3248919 1 18260265256845694022
568465 68 18129114474882246842
63268167 104 17275102812678329674
81228 2 18261405463821375473
8809292 202 18339369552102080962

> <PUBCHEM_SHAPE_MULTIPOLES>
277.26
6.31
1.83
1.24
4.17
0.3
-0.17
0.77
1.25
-2.05
0.42
-0.2
-0.45
0.99

> <PUBCHEM_SHAPE_SELFOVERLAP>
561.347

> <PUBCHEM_SHAPE_VOLUME>
162.8

> <PUBCHEM_COORDINATE_TYPE>
2
5
10

$$$$
7177
  -OEChem-12271620083D

 46 46  0     0  0  0  0  0  0999 V2000
   -0.0250    1.1797    0.1234 O   0  0  0  0  0  0  0  0  0  0  0  0
   -0.5332    1.0660   -2.1189 O   0  0  0  0  0  0  0  0  0  0  0  0
    2.8106   -0.9866   -0.1389 N   0  0  0  0  0  0  0  0  0  0  0  0
   -5.8494   -1.0463    0.7643 N   0  0  0  0  0  0  0  0  0  0  0  0
    2.2942    1.2585    0.8984 C   0  0  0  0  0  0  0  0  0  0  0  0
    2.3576   -0.2848    1.0590 C   0  0  0  0  0  0  0  0  0  0  0  0
    1.2707    1.6808   -0.1798 C   0  0  0  0  0  0  0  0  0  0  0  0
    1.8780    1.8561    2.2591 C   0  0  0  0  0  0  0  0  0  0  0  0
    3.6740    1.8302    0.5214 C   0  0  0  0  0  0  0  0  0  0  0  0
    2.8986   -2.4254    0.1118 C   0  0  0  0  0  0  0  0  0  0  0  0
    4.1049   -0.4662   -0.5802 C   0  0  0  0  0  0  0  0  0  0  0  0
    1.5632   -2.9853    0.5714 C   0  0  0  0  0  0  0  0  0  0  0  0
    4.5604   -1.1426   -1.8621 C   0  0  0  0  0  0  0  0  0  0  0  0
   -0.8277    0.9133   -0.9436 C   0  0  0  0  0  0  0  0  0  0  0  0
   -2.1465    0.4000   -0.4945 C   0  0  0  0  0  0  0  0  0  0  0  0
   -3.2599    0.6533   -1.2694 C   0  0  0  0  0  0  0  0  0  0  0  0
   -2.2180   -0.3157    0.6833 C   0  0  0  0  0  0  0  0  0  0  0  0
   -4.4987    0.1700   -0.8480 C   0  0  0  0  0  0  0  0  0  0  0  0
   -3.4567   -0.7991    1.1045 C   0  0  0  0  0  0  0  0  0  0  0  0
   -4.5972   -0.5562    0.3389 C   0  0  0  0  0  0  0  0  0  0  0  0
    1.3517   -0.6135    1.3415 H   0  0  0  0  0  0  0  0  0  0  0  0
    3.0155   -0.5267    1.9065 H   0  0  0  0  0  0  0  0  0  0  0  0
    1.6102    1.3315   -1.1627 H   0  0  0  0  0  0  0  0  0  0  0  0
    1.2037    2.7748   -0.2257 H   0  0  0  0  0  0  0  0  0  0  0  0
    0.9236    1.4421    2.6035 H   0  0  0  0  0  0  0  0  0  0  0  0
    1.7612    2.9442    2.2000 H   0  0  0  0  0  0  0  0  0  0  0  0
    2.6275    1.6420    3.0297 H   0  0  0  0  0  0  0  0  0  0  0  0
    4.5322    1.3130    0.9568 H   0  0  0  0  0  0  0  0  0  0  0  0
    3.7909    2.1586   -0.5170 H   0  0  0  0  0  0  0  0  0  0  0  0
    3.7548    2.8135    1.0160 H   0  0  0  0  0  0  0  0  0  0  0  0
    3.1431   -2.9623   -0.8107 H   0  0  0  0  0  0  0  0  0  0  0  0
    3.6735   -2.6665    0.8504 H   0  0  0  0  0  0  0  0  0  0  0  0
    4.9020   -0.5306    0.1662 H   0  0  0  0  0  0  0  0  0  0  0  0
    3.9848    0.4958   -1.0399 H   0  0  0  0  0  0  0  0  0  0  0  0
    1.3370   -2.7302    1.6114 H   0  0  0  0  0  0  0  0  0  0  0  0
    0.7387   -2.6490   -0.0669 H   0  0  0  0  0  0  0  0  0  0  0  0
    1.5882   -4.0798    0.5194 H   0  0  0  0  0  0  0  0  0  0  0  0
    4.9357   -2.1553   -1.6827 H   0  0  0  0  0  0  0  0  0  0  0  0
    3.7589   -1.1940   -2.6084 H   0  0  0  0  0  0  0  0  0  0  0  0
    5.3895   -0.5819   -2.3109 H   0  0  0  0  0  0  0  0  0  0  0  0
   -3.1963    1.2199   -2.1936 H   0  0  0  0  0  0  0  0  0  0  0  0
   -1.3434   -0.5303    1.2900 H   0  0  0  0  0  0  0  0  0  0  0  0
   -5.3802    0.3663   -1.4531 H   0  0  0  0  0  0  0  0  0  0  0  0
   -3.5200   -1.3667    2.0295 H   0  0  0  0  0  0  0  0  0  0  0  0
   -5.9215   -1.5708    1.6260 H   0  0  0  0  0  0  0  0  0  0  0  0
   -6.6771   -0.8686    0.2110 H   0  0  0  0  0  0  0  0  0  0  0  0
  1  7  1  0  0  0  0
  1 14  1  0  0  0  0
  2 14  2  0  0  0  0
  3  6  1  0  0  0  0
  3 10  1  0  0  0  0
  3 11  1  0  0  0  0
  4 20  1  0  0  0  0
  4 45  1  0  0  0  0
  4 46  1  0  0  0  0
  5  6  1  0  0  0  0
  5  7  1  0  0  0  0
  5  8  1  0  0  0  0
  5  9  1  0  0  0  0
  6 21  1  0  0  0  0
  6 22  1  0  0  0  0
  7 23  1  0  0  0  0
  7 24  1  0  0  0  0
  8 25  1  0  0  0  0
  8 26  1  0  0  0  0
  8 27  1  0  0  0  0
  9 28  1  0  0  0  0
  9 29  1  0  0  0  0
  9 30  1  0  0  0  0
 10 12  1  0  0  0  0
 10 31  1  0  0  0  0
 10 32  1  0  0  0  0
 11 13  1  0  0  0  0
 11 33  1  0  0  0  0
 11 34  1  0  0  0  0
 12 35  1  0  0  0  0
 12 36  1  0  0  0  0
 12 37  1  0  0  0  0
 13 38  1  0  0  0  0
 13 39  1  0  0  0  0
 13 40  1  0  0  0  0
 14 15  1  0  0  0  0
 15 16  2  0  0  0  0
 15 17  1  0  0  0  0
 16 18  1  0  0  0  0
 16 41  1  0  0  0  0
 17 19  2  0  0  0  0
 17 42  1  0  0  0  0
 18 20  2  0  0  0  0
 18 43  1  0  0  0  0
 19 20  1  0  0  0  0
 19 44  1  0  0  0  0
M  END
> <PUBCHEM_COMPOUND_CID>
7177

> <PUBCHEM_CONFORMER_RMSD>
0.8

> <PUBCHEM_CONFORMER_DIVERSEORDER>
48
36
49
21
38
40
18
35
39
24
42
25
10
44
23
34
47
22
9
43
15
27
2
16
12
33
32
31
28
37
26
29
17
30
45
5
6
1
13
8
20
46
19
11
4
3
14
41
7
50

> <PUBCHEM_MMFF94_PARTIAL_CHARGES>
21
1 -0.43
10 0.27
11 0.27
14 0.63
15 0.09
16 -0.15
17 -0.15
18 -0.15
19 -0.15
2 -0.57
20 0.1
3 -0.81
4 -0.9
41 0.15
42 0.15
43 0.15
44 0.15
45 0.4
46 0.4
6 0.27
7 0.28

> <PUBCHEM_EFFECTIVE_ROTOR_COUNT>
8

> <PUBCHEM_PHARMACOPHORE_FEATURES>
6
1 2 acceptor
1 3 cation
1 4 cation
1 4 donor
3 5 8 9 hydrophobe
6 15 16 17 18 19 20 rings

> <PUBCHEM_HEAVY_ATOM_COUNT>
20

> <PUBCHEM_ATOM_DEF_STEREO_COUNT>
0

> <PUBCHEM_ATOM_UDEF_STEREO_COUNT>
0

> <PUBCHEM_BOND_DEF_STEREO_COUNT>
0

> <PUBCHEM_BOND_UDEF_STEREO_COUNT>
0

> <PUBCHEM_ISOTOPIC_ATOM_COUNT>
0

> <PUBCHEM_COMPONENT_COUNT>
1

> <PUBCHEM_CACTVS_TAUTO_COUNT>
2

> <PUBCHEM_CONFORMER_ID>
00001C0900000030

> <PUBCHEM_MMFF94_ENERGY>
85.5479

> <PUBCHEM_FEATURE_SELFOVERLAP>
30.446

> <PUBCHEM_SHAPE_FINGERPRINT>
10064457 181 18197777915174368626
10366900 7 18335423447877986835
10498660 4 17022900116706288255
11140007 195 16128381415564810476
12403259 327 12823285772329383966
12553582 1 17988072288767403694
12596599 1 17846773014162988374
12596602 18 17560804389717477627
12616999 72 17822013090626717222
12633257 1 17917709084791869359
12670546 177 16877670058088907807
12670546 56 17846492639225114313
12778500 126 17987817228187372857
13402501 40 18260552216338009746
13464513 79 18410859871571511734
13533116 47 18201999950126587499
13583140 156 17916571189742618245
13911882 115 18191032394073632906
14251764 30 17916600725943031118
14252887 29 18187642535248267113
14386348 63 18187363237909282451
14573314 32 18333725802425886885
14617045 38 18260840293101336827
15142526 21 16696928127742617688
15342816 4 16443336598656139457
15635459 17 18259985959396660779
15664445 248 17312827082402650308
17492 54 17096677411945547894
1813 80 17203059478406669540
20645477 70 18202270399241800004
20871999 31 16950569869834082861
21521721 280 18341898537106618480
21673915 165 18195802101517363295
2215653 11 18334850590067769975
22224240 67 18196641011788381616
23557571 272 17313652777117690628
23559900 14 18113893827875676861
239999 70 18411703205653569710
2871803 45 18409169874886251982
3052486 1 17314514935888712298
3323516 105 18335702723820840538
33824 294 18409442609557101226
345986 75 17631450064337673474
474 4 17128432522778348184
6823239 73 18041283256782564528
8509985 295 12679184869114580094
94968 8 18341050731615172710
9709674 26 18041276664477146635

> <PUBCHEM_SHAPE_MULTIPOLES>
389.89
10.32
2.37
1.67
8.95
0.99
-0.2
3.34
-0.62
-2.99
0.72
-0.46
-0.4
1.66

> <PUBCHEM_SHAPE_SELFOVERLAP>
787.335

> <PUBCHEM_SHAPE_VOLUME>
229.4

> <PUBCHEM_COORDINATE_TYPE>
2
5
10

$$$$
76310
  -OEChem-12271620043D

 21 22  0     0  0  0  0  0  0999 V2000
    3.4237   -0.0034   -0.1448 N   0  0  0  0  0  0  0  0  0  0  0  0
    2.0613    0.0027    0.3660 C   0  0  0  0  0  0  0  0  0  0  0  0
    1.2545    1.2363   -0.0897 C   0  0  0  0  0  0  0  0  0  0  0  0
    1.2572   -1.2322   -0.0896 C   0  0  0  0  0  0  0  0  0  0  0  0
   -0.1426    0.7009   -0.0236 C   0  0  0  0  0  0  0  0  0  0  0  0
   -0.1410   -0.6995   -0.0235 C   0  0  0  0  0  0  0  0  0  0  0  0
   -1.3293    1.4140   -0.0115 C   0  0  0  0  0  0  0  0  0  0  0  0
   -1.3263   -1.4151   -0.0111 C   0  0  0  0  0  0  0  0  0  0  0  0
   -2.5295    0.7002    0.0138 C   0  0  0  0  0  0  0  0  0  0  0  0
   -2.5279   -0.7039    0.0141 C   0  0  0  0  0  0  0  0  0  0  0  0
    2.1049    0.0050    1.4646 H   0  0  0  0  0  0  0  0  0  0  0  0
    1.4876    1.5292   -1.1196 H   0  0  0  0  0  0  0  0  0  0  0  0
    1.4102    2.0857    0.5821 H   0  0  0  0  0  0  0  0  0  0  0  0
    1.4141   -2.0813    0.5826 H   0  0  0  0  0  0  0  0  0  0  0  0
    1.4900   -1.5253   -1.1196 H   0  0  0  0  0  0  0  0  0  0  0  0
   -1.3332    2.4985   -0.0233 H   0  0  0  0  0  0  0  0  0  0  0  0
   -1.3278   -2.4997   -0.0225 H   0  0  0  0  0  0  0  0  0  0  0  0
    3.4109    0.0099   -1.1640 H   0  0  0  0  0  0  0  0  0  0  0  0
    3.8827   -0.8748    0.1182 H   0  0  0  0  0  0  0  0  0  0  0  0
   -3.4750    1.2355    0.0272 H   0  0  0  0  0  0  0  0  0  0  0  0
   -3.4723   -1.2413    0.0277 H   0  0  0  0  0  0  0  0  0  0  0  0
  1  2  1  0  0  0  0
  1 18  1  0  0  0  0
  1 19  1  0  0  0  0
  2  3  1  0  0  0  0
  2  4  1  0  0  0  0
  2 11  1  0  0  0  0
  3  5  1  0  0  0  0
  3 12  1  0  0  0  0
  3 13  1  0  0  0  0
  4  6  1  0  0  0  0
  4 14  1  0  0  0  0
  4 15  1  0  0  0  0
  5  6  1  0  0  0  0
  5  7  2  0  0  0  0
  6  8  2  0  0  0  0
  7  9  1  0  0  0  0
  7 16  1  0  0  0  0
  8 10  1  0  0  0  0
  8 17  1  0  0  0  0
  9 10  2  0  0  0  0
  9 20  1  0  0  0  0
 10 21  1  0  0  0  0
M  END
> <PUBCHEM_COMPOUND_CID>
76310

> <PUBCHEM_CONFORMER_RMSD>
0.4

> <PUBCHEM_CONFORMER_DIVERSEORDER>
1
2

> <PUBCHEM_MMFF94_PARTIAL_CHARGES>
16
1 -0.99
10 -0.15
16 0.15
17 0.15
18 0.36
19 0.36
2 0.27
20 0.15
21 0.15
3 0.14
4 0.14
5 -0.14
6 -0.14
7 -0.15
8 -0.15
9 -0.15

> <PUBCHEM_EFFECTIVE_ROTOR_COUNT>
0.6

> <PUBCHEM_PHARMACOPHORE_FEATURES>
4
1 1 cation
1 1 donor
5 2 3 4 5 6 rings
6 5 6 7 8 9 10 rings

> <PUBCHEM_HEAVY_ATOM_COUNT>
10

> <PUBCHEM_ATOM_DEF_STEREO_COUNT>
0

> <PUBCHEM_ATOM_UDEF_STEREO_COUNT>
0

> <PUBCHEM_BOND_DEF_STEREO_COUNT>
0

> <PUBCHEM_BOND_UDEF_STEREO_COUNT>
0

> <PUBCHEM_ISOTOPIC_ATOM_COUNT>
0

> <PUBCHEM_COMPONENT_COUNT>
1

> <PUBCHEM_CACTVS_TAUTO_COUNT>
1

> <PUBCHEM_CONFORMER_ID>
00012A1600000001

> <PUBCHEM_MMFF94_ENERGY>
21.2704

> <PUBCHEM_FEATURE_SELFOVERLAP>
20.381

> <PUBCHEM_SHAPE_FINGERPRINT>
10857977 72 18339350959120110913
12897270 3 18410853278290063261
13024252 1 15357696379437355409
14128692 85 18338801237676569068
14325111 11 18411136926805218128
16945 1 18410570686658765851
193761 8 17329709821216469353
20201158 50 18412823577447106231
20871998 184 18201441440652671423
21040471 1 18339079272400319241
23235685 24 18340199709161606321
23402655 69 18124296243864078157
23463225 33 18262795160477340858
23552423 10 18188490301578130398
2748010 2 18050564337543296717
29004967 10 18410577292297433219
369184 2 18408036303861792163
5084963 1 18271807951230628257
528886 8 18411132519952364827

> <PUBCHEM_SHAPE_MULTIPOLES>
200.81
3.95
1.53
0.63
1.39
0
0.01
0
0
-0.37
-0.03
0.01
0
0

> <PUBCHEM_SHAPE_SELFOVERLAP>
430.955

> <PUBCHEM_SHAPE_VOLUME>
113.8

> <PUBCHEM_COORDINATE_TYPE>
2
5
10

$$$$
82100224
  -OEChem-12271618583D

 34 34  0     1  0  0  0  0  0999 V2000
    1.7228   -1.4015   -1.4830 O   0  0  0  0  0  0  0  0  0  0  0  0
    3.2323    0.4572    0.1893 N   0  0  0  0  0  0  0  0  0  0  0  0
    2.2969   -0.5474    0.6987 C   0  0  1  0  0  0  0  0  0  0  0  0
    1.2947   -0.8962   -0.4233 C   0  0  0  0  0  0  0  0  0  0  0  0
   -0.1256   -0.6283   -0.2629 C   0  0  0  0  0  0  0  0  0  0  0  0
    3.0661   -1.7903    1.1272 C   0  0  0  0  0  0  0  0  0  0  0  0
    2.6303    1.7804    0.2176 C   0  0  0  0  0  0  0  0  0  0  0  0
   -2.8507   -0.1160    0.0438 C   0  0  0  0  0  0  0  0  0  0  0  0
   -0.7026   -0.6592    1.0068 C   0  0  0  0  0  0  0  0  0  0  0  0
   -0.9113   -0.3410   -1.3792 C   0  0  0  0  0  0  0  0  0  0  0  0
   -4.3076    0.1579    0.2082 C   0  0  0  0  0  0  0  0  0  0  0  0
   -2.0651   -0.4030    1.1601 C   0  0  0  0  0  0  0  0  0  0  0  0
   -2.2738   -0.0849   -1.2258 C   0  0  0  0  0  0  0  0  0  0  0  0
    3.5918    2.8323   -0.3090 C   0  0  0  0  0  0  0  0  0  0  0  0
   -4.5982    1.6399    0.4316 C   0  0  0  0  0  0  0  0  0  0  0  0
    1.7957   -0.1564    1.5880 H   0  0  0  0  0  0  0  0  0  0  0  0
    4.0750    0.4668    0.7640 H   0  0  0  0  0  0  0  0  0  0  0  0
    3.6444   -2.2170    0.2995 H   0  0  0  0  0  0  0  0  0  0  0  0
    3.7597   -1.5656    1.9449 H   0  0  0  0  0  0  0  0  0  0  0  0
    2.3762   -2.5671    1.4752 H   0  0  0  0  0  0  0  0  0  0  0  0
    1.7261    1.8113   -0.4004 H   0  0  0  0  0  0  0  0  0  0  0  0
    2.3448    2.0530    1.2407 H   0  0  0  0  0  0  0  0  0  0  0  0
   -0.1335   -0.9132    1.8954 H   0  0  0  0  0  0  0  0  0  0  0  0
   -0.4792   -0.3069   -2.3759 H   0  0  0  0  0  0  0  0  0  0  0  0
   -4.8562   -0.1912   -0.6755 H   0  0  0  0  0  0  0  0  0  0  0  0
   -4.7049   -0.4218    1.0508 H   0  0  0  0  0  0  0  0  0  0  0  0
   -2.5043   -0.4359    2.1537 H   0  0  0  0  0  0  0  0  0  0  0  0
   -2.8746    0.1405   -2.1030 H   0  0  0  0  0  0  0  0  0  0  0  0
    4.5013    2.8781    0.2995 H   0  0  0  0  0  0  0  0  0  0  0  0
    3.8817    2.6199   -1.3436 H   0  0  0  0  0  0  0  0  0  0  0  0
    3.1212    3.8205   -0.2865 H   0  0  0  0  0  0  0  0  0  0  0  0
   -4.0996    2.0096    1.3339 H   0  0  0  0  0  0  0  0  0  0  0  0
   -5.6747    1.8003    0.5476 H   0  0  0  0  0  0  0  0  0  0  0  0
   -4.2533    2.2431   -0.4151 H   0  0  0  0  0  0  0  0  0  0  0  0
  1  4  2  0  0  0  0
  2  3  1  0  0  0  0
  2  7  1  0  0  0  0
  2 17  1  0  0  0  0
  3  4  1  0  0  0  0
  3  6  1  0  0  0  0
  3 16  1  0  0  0  0
  4  5  1  0  0  0  0
  5  9  2  0  0  0  0
  5 10  1  0  0  0  0
  6 18  1  0  0  0  0
  6 19  1  0  0  0  0
  6 20  1  0  0  0  0
  7 14  1  0  0  0  0
  7 21  1  0  0  0  0
  7 22  1  0  0  0  0
  8 11  1  0  0  0  0
  8 12  2  0  0  0  0
  8 13  1  0  0  0  0
  9 12  1  0  0  0  0
  9 23  1  0  0  0  0
 10 13  2  0  0  0  0
 10 24  1  0  0  0  0
 11 15  1  0  0  0  0
 11 25  1  0  0  0  0
 11 26  1  0  0  0  0
 12 27  1  0  0  0  0
 13 28  1  0  0  0  0
 14 29  1  0  0  0  0
 14 30  1  0  0  0  0
 14 31  1  0  0  0  0
 15 32  1  0  0  0  0
 15 33  1  0  0  0  0
 15 34  1  0  0  0  0
M  END
> <PUBCHEM_COMPOUND_CID>
82100224

> <PUBCHEM_CONFORMER_RMSD>
0.6

> <PUBCHEM_CONFORMER_DIVERSEORDER>
1
107
140
115
83
99
132
85
33
133
98
154
81
138
134
30
106
50
76
122
151
93
68
153
148
42
26
128
144
112
130
137
139
66
53
7
117
88
14
91
65
150
102
126
51
141
36
82
129
159
158
124
15
71
13
152
61
89
46
108
60
110
72
109
160
6
74
136
120
75
49
10
56
78
44
149
19
157
155
105
114
77
113
11
123
48
31
9
37
127
156
116
21
59
29
125
97
145
131
87
101
90
58
84
111
12
86
18
147
92
100
146
64
70
142
5
67
32
80
41
23
95
119
143
69
25
96
3
118
17
135
79
20
54
40
121
28
45
103
94
27
104
4
24
57
62
43
35
55
73
63
52
38
8
34
2
39
22
16
47

> <PUBCHEM_MMFF94_PARTIAL_CHARGES>
17
1 -0.57
10 -0.15
11 0.14
12 -0.15
13 -0.15
17 0.36
2 -0.9
23 0.15
24 0.15
27 0.15
28 0.15
3 0.33
4 0.42
5 0.09
7 0.27
8 -0.14
9 -0.15

> <PUBCHEM_EFFECTIVE_ROTOR_COUNT>
5

> <PUBCHEM_PHARMACOPHORE_FEATURES>
5
1 1 acceptor
1 15 hydrophobe
1 2 cation
1 2 donor
6 5 8 9 10 12 13 rings

> <PUBCHEM_HEAVY_ATOM_COUNT>
15

> <PUBCHEM_ATOM_DEF_STEREO_COUNT>
0

> <PUBCHEM_ATOM_UDEF_STEREO_COUNT>
1

> <PUBCHEM_BOND_DEF_STEREO_COUNT>
0

> <PUBCHEM_BOND_UDEF_STEREO_COUNT>
0

> <PUBCHEM_ISOTOPIC_ATOM_COUNT>
0

> <PUBCHEM_COMPONENT_COUNT>
1

> <PUBCHEM_CACTVS_TAUTO_COUNT>
7

> <PUBCHEM_CONFORMER_ID>
04E4C00000000001

> <PUBCHEM_MMFF94_ENERGY>
26.4412

> <PUBCHEM_FEATURE_SELFOVERLAP>
25.371

> <PUBCHEM_SHAPE_FINGERPRINT>
11089746 13 18043236948013191413
11769659 78 7997970163542212017
12032990 46 15213312863596440051
12616999 72 17632580469680773479
12633257 1 17531791563399817352
12932764 1 18040429979888210902
14115302 16 17060335206361748190
14123255 52 18127974315779089096
14178342 30 17241336917800247859
14251764 38 18266736875346254469
14252887 29 14851609851763738266
14289901 80 18410571829542436963
14415576 193 18273498961496501661
15342168 16 18263364848701842773
15775835 57 18199748218636954228
1813 80 17914345576508515814
18186145 218 18334292033375411567
19026448 5 18341603820281568743
19049666 15 17315050204772115790
19786989 88 18341607131200148927
200 152 9151173164289311322
20539784 86 18040708165399631066
20645476 183 17418089961985200719
21503847 285 18411423877854785660
21524375 3 18051971713012503396
22169311 14 18113901533073450995
2255824 54 17988089885185488958
23559900 14 17774728541239606791
2748010 2 15504321645359821667
31174 14 18113892737175444854
3286 77 17968656008373724219
449060 62 18337390538789333708
474 4 18410854386428789345
4990 188 12967129402376159313
633830 44 18341898442263780047

> <PUBCHEM_SHAPE_MULTIPOLES>
297.84
7.84
2.05
1.27
3.98
1.51
0.27
4.12
-1.51
-2.78
-0.17
0.14
-0.4
-0.47

> <PUBCHEM_SHAPE_SELFOVERLAP>
598.66

> <PUBCHEM_SHAPE_VOLUME>
176.1

> <PUBCHEM_COORDINATE_TYPE>
2
5
10

$$$$
82100418
  -OEChem-12271618393D

 25 25  0     1  0  0  0  0  0999 V2000
   -4.5936    0.5328   -0.2168 Cl  0  0  0  0  0  0  0  0  0  0  0  0
    1.6363   -1.7745    0.4936 O   0  0  0  0  0  0  0  0  0  0  0  0
    3.1437    0.3276   -0.8627 N   0  0  0  0  0  0  0  0  0  0  0  0
    2.2718    0.5439    0.2936 C   0  0  1  0  0  0  0  0  0  0  0  0
    1.2356   -0.6000    0.3458 C   0  0  0  0  0  0  0  0  0  0  0  0
   -0.1857   -0.3242    0.2096 C   0  0  0  0  0  0  0  0  0  0  0  0
    3.1074    0.5604    1.5670 C   0  0  0  0  0  0  0  0  0  0  0  0
   -1.0303   -1.2794   -0.3561 C   0  0  0  0  0  0  0  0  0  0  0  0
   -0.7044    0.8960    0.6431 C   0  0  0  0  0  0  0  0  0  0  0  0
    2.4920    0.7658   -2.0862 C   0  0  0  0  0  0  0  0  0  0  0  0
   -2.3934   -1.0146   -0.4879 C   0  0  0  0  0  0  0  0  0  0  0  0
   -2.0674    1.1609    0.5113 C   0  0  0  0  0  0  0  0  0  0  0  0
   -2.9119    0.2055   -0.0542 C   0  0  0  0  0  0  0  0  0  0  0  0
    1.7952    1.5239    0.2072 H   0  0  0  0  0  0  0  0  0  0  0  0
    3.6648   -0.3740    1.7006 H   0  0  0  0  0  0  0  0  0  0  0  0
    3.8271    1.3863    1.5589 H   0  0  0  0  0  0  0  0  0  0  0  0
    2.4645    0.6832    2.4458 H   0  0  0  0  0  0  0  0  0  0  0  0
    4.0034    0.8643   -0.7467 H   0  0  0  0  0  0  0  0  0  0  0  0
   -0.6444   -2.2339   -0.7047 H   0  0  0  0  0  0  0  0  0  0  0  0
   -0.0872    1.6505    1.1205 H   0  0  0  0  0  0  0  0  0  0  0  0
    1.5842    0.1915   -2.2955 H   0  0  0  0  0  0  0  0  0  0  0  0
    3.1708    0.6093   -2.9308 H   0  0  0  0  0  0  0  0  0  0  0  0
    2.2437    1.8320   -2.0566 H   0  0  0  0  0  0  0  0  0  0  0  0
   -3.0395   -1.7678   -0.9315 H   0  0  0  0  0  0  0  0  0  0  0  0
   -2.4593    2.1128    0.8605 H   0  0  0  0  0  0  0  0  0  0  0  0
  1 13  1  0  0  0  0
  2  5  2  0  0  0  0
  3  4  1  0  0  0  0
  3 10  1  0  0  0  0
  3 18  1  0  0  0  0
  4  5  1  0  0  0  0
  4  7  1  0  0  0  0
  4 14  1  0  0  0  0
  5  6  1  0  0  0  0
  6  8  2  0  0  0  0
  6  9  1  0  0  0  0
  7 15  1  0  0  0  0
  7 16  1  0  0  0  0
  7 17  1  0  0  0  0
  8 11  1  0  0  0  0
  8 19  1  0  0  0  0
  9 12  2  0  0  0  0
  9 20  1  0  0  0  0
 10 21  1  0  0  0  0
 10 22  1  0  0  0  0
 10 23  1  0  0  0  0
 11 13  2  0  0  0  0
 11 24  1  0  0  0  0
 12 13  1  0  0  0  0
 12 25  1  0  0  0  0
M  END
> <PUBCHEM_COMPOUND_CID>
82100418

> <PUBCHEM_CONFORMER_RMSD>
0.6

> <PUBCHEM_CONFORMER_DIVERSEORDER>
1
21
12
10
8
15
3
4
14
19
7
17
5
18
6
20
11
9
2
13
16

> <PUBCHEM_MMFF94_PARTIAL_CHARGES>
17
1 -0.18
10 0.27
11 -0.15
12 -0.15
13 0.18
18 0.36
19 0.15
2 -0.57
20 0.15
24 0.15
25 0.15
3 -0.9
4 0.33
5 0.42
6 0.09
8 -0.15
9 -0.15

> <PUBCHEM_EFFECTIVE_ROTOR_COUNT>
3

> <PUBCHEM_PHARMACOPHORE_FEATURES>
4
1 2 acceptor
1 3 cation
1 3 donor
6 6 8 9 11 12 13 rings

> <PUBCHEM_HEAVY_ATOM_COUNT>
13

> <PUBCHEM_ATOM_DEF_STEREO_COUNT>
0

> <PUBCHEM_ATOM_UDEF_STEREO_COUNT>
1

> <PUBCHEM_BOND_DEF_STEREO_COUNT>
0

> <PUBCHEM_BOND_UDEF_STEREO_COUNT>
0

> <PUBCHEM_ISOTOPIC_ATOM_COUNT>
0

> <PUBCHEM_COMPONENT_COUNT>
1

> <PUBCHEM_CACTVS_TAUTO_COUNT>
2

> <PUBCHEM_CONFORMER_ID>
04E4C0C200000001

> <PUBCHEM_MMFF94_ENERGY>
29.4593

> <PUBCHEM_FEATURE_SELFOVERLAP>
20.297

> <PUBCHEM_SHAPE_FINGERPRINT>
11031198 65 18259994772542600459
12897270 3 18131634495197442234
12932764 1 18201721738765709555
13296908 3 17703511094454692191
14993402 34 18342458136605675605
15219456 202 16917068901402314960
15775835 57 17968103070131508052
16945 1 18411981390384651273
1813 80 17533491237047308346
18186145 218 17846781771917497617
19026448 5 17095520721264970891
19786989 88 17095524015040942567
20201158 50 16415209965920146596
20279233 1 17131834291394641150
20523700 14 18410013255870234255
20539784 86 15140958478596516044
20559304 39 18270675351306958674
20645476 183 18334300902509550687
20645477 70 15554452885531880437
20671657 53 15697182659509158836
22802520 49 17274559649496692886
23402539 116 17703210910800822184
23552423 10 18264487291323594155
23557571 272 17630886208024592398
23559900 14 18060701715167637780
31174 14 15285356240865123124
3248919 1 17967530181534008307
4990 188 17203612566872397493
537710 114 18410293605966706209
633830 44 17131834227545443417
7364860 26 18059569123364599154
8030462 33 18341336612721790475

> <PUBCHEM_SHAPE_MULTIPOLES>
258.55
6.56
1.35
1.3
3.25
0.05
0.59
1.08
1.38
0
-0.25
-1.47
-0.28
0.6

> <PUBCHEM_SHAPE_SELFOVERLAP>
519.202

> <PUBCHEM_SHAPE_VOLUME>
153.1

> <PUBCHEM_COORDINATE_TYPE>
2
5
10

$$$$
82100444
  -OEChem-12271619003D

 28 28  0     1  0  0  0  0  0999 V2000
   -4.4251   -0.7463    0.4503 F   0  0  0  0  0  0  0  0  0  0  0  0
    1.1690    1.2614   -1.6528 O   0  0  0  0  0  0  0  0  0  0  0  0
    2.9474   -0.2009    0.1635 N   0  0  0  0  0  0  0  0  0  0  0  0
    1.9113    0.7446    0.5834 C   0  0  2  0  0  0  0  0  0  0  0  0
    0.8426    0.8247   -0.5284 C   0  0  0  0  0  0  0  0  0  0  0  0
    2.5348    2.1143    0.8185 C   0  0  0  0  0  0  0  0  0  0  0  0
    2.5124   -1.5705    0.3844 C   0  0  0  0  0  0  0  0  0  0  0  0
   -0.5293    0.4149   -0.2734 C   0  0  0  0  0  0  0  0  0  0  0  0
    3.5795   -2.5620   -0.0471 C   0  0  0  0  0  0  0  0  0  0  0  0
   -1.0687    0.5425    1.0067 C   0  0  0  0  0  0  0  0  0  0  0  0
   -1.3061   -0.1051   -1.3088 C   0  0  0  0  0  0  0  0  0  0  0  0
   -2.3846    0.1501    1.2515 C   0  0  0  0  0  0  0  0  0  0  0  0
   -2.6220   -0.4976   -1.0640 C   0  0  0  0  0  0  0  0  0  0  0  0
   -3.1611   -0.3700    0.2161 C   0  0  0  0  0  0  0  0  0  0  0  0
    1.4871    0.4164    1.5359 H   0  0  0  0  0  0  0  0  0  0  0  0
    3.8011   -0.0367    0.6973 H   0  0  0  0  0  0  0  0  0  0  0  0
    3.0347    2.4943   -0.0800 H   0  0  0  0  0  0  0  0  0  0  0  0
    1.7652    2.8437    1.0948 H   0  0  0  0  0  0  0  0  0  0  0  0
    3.2724    2.0808    1.6278 H   0  0  0  0  0  0  0  0  0  0  0  0
    2.2914   -1.7392    1.4453 H   0  0  0  0  0  0  0  0  0  0  0  0
    1.6015   -1.7875   -0.1845 H   0  0  0  0  0  0  0  0  0  0  0  0
    3.8120   -2.4537   -1.1119 H   0  0  0  0  0  0  0  0  0  0  0  0
    4.5047   -2.4213    0.5219 H   0  0  0  0  0  0  0  0  0  0  0  0
    3.2338   -3.5872    0.1202 H   0  0  0  0  0  0  0  0  0  0  0  0
   -0.5098    0.9756    1.8302 H   0  0  0  0  0  0  0  0  0  0  0  0
   -0.9021   -0.2167   -2.3117 H   0  0  0  0  0  0  0  0  0  0  0  0
   -2.8079    0.2566    2.2460 H   0  0  0  0  0  0  0  0  0  0  0  0
   -3.2269   -0.9035   -1.8695 H   0  0  0  0  0  0  0  0  0  0  0  0
  1 14  1  0  0  0  0
  2  5  2  0  0  0  0
  3  4  1  0  0  0  0
  3  7  1  0  0  0  0
  3 16  1  0  0  0  0
  4  5  1  0  0  0  0
  4  6  1  0  0  0  0
  4 15  1  0  0  0  0
  5  8  1  0  0  0  0
  6 17  1  0  0  0  0
  6 18  1  0  0  0  0
  6 19  1  0  0  0  0
  7  9  1  0  0  0  0
  7 20  1  0  0  0  0
  7 21  1  0  0  0  0
  8 10  2  0  0  0  0
  8 11  1  0  0  0  0
  9 22  1  0  0  0  0
  9 23  1  0  0  0  0
  9 24  1  0  0  0  0
 10 12  1  0  0  0  0
 10 25  1  0  0  0  0
 11 13  2  0  0  0  0
 11 26  1  0  0  0  0
 12 14  2  0  0  0  0
 12 27  1  0  0  0  0
 13 14  1  0  0  0  0
 13 28  1  0  0  0  0
M  END
> <PUBCHEM_COMPOUND_CID>
82100444

> <PUBCHEM_CONFORMER_RMSD>
0.6

> <PUBCHEM_CONFORMER_DIVERSEORDER>
1
39
31
18
33
50
36
40
34
26
8
4
44
14
45
37
23
32
35
29
42
25
13
46
41
43
21
5
19
17
38
48
28
12
9
3
22
49
30
2
10
15
27
16
47
24
7
20
11
6

> <PUBCHEM_MMFF94_PARTIAL_CHARGES>
17
1 -0.19
10 -0.15
11 -0.15
12 -0.15
13 -0.15
14 0.19
16 0.36
2 -0.57
25 0.15
26 0.15
27 0.15
28 0.15
3 -0.9
4 0.33
5 0.42
7 0.27
8 0.09

> <PUBCHEM_EFFECTIVE_ROTOR_COUNT>
4

> <PUBCHEM_PHARMACOPHORE_FEATURES>
4
1 2 acceptor
1 3 cation
1 3 donor
6 8 10 11 12 13 14 rings

> <PUBCHEM_HEAVY_ATOM_COUNT>
14

> <PUBCHEM_ATOM_DEF_STEREO_COUNT>
0

> <PUBCHEM_ATOM_UDEF_STEREO_COUNT>
1

> <PUBCHEM_BOND_DEF_STEREO_COUNT>
0

> <PUBCHEM_BOND_UDEF_STEREO_COUNT>
0

> <PUBCHEM_ISOTOPIC_ATOM_COUNT>
0

> <PUBCHEM_COMPONENT_COUNT>
1

> <PUBCHEM_CACTVS_TAUTO_COUNT>
2

> <PUBCHEM_CONFORMER_ID>
04E4C0DC00000001

> <PUBCHEM_MMFF94_ENERGY>
24.3267

> <PUBCHEM_FEATURE_SELFOVERLAP>
20.297

> <PUBCHEM_SHAPE_FINGERPRINT>
10465860 71 16226055452812961478
12251169 10 17561079211388711920
12932764 1 18272933855506661509
13296908 3 17822002095098787903
13533116 47 18413110576337517107
14252887 29 18040435524664304608
14350558 41 18334579070071039331
15279307 12 17986667280400099110
15375462 189 17989202689483247010
15669948 3 16557899177561818733
16945 1 18339066211563229132
17846911 113 15267344007388423387
19766037 51 17386302999021597566
204376 136 18049715519400308424
20559304 39 17560805433098981864
20645477 70 18265593481535656639
20711985 344 17097763561592565916
20871999 31 16805891667127309678
22445834 79 18201718440183502730
2255824 54 18271245031954082916
230 275 13542467557481343224
23557571 272 16298380254251918972
369184 2 18272929466355864505
4072396 5 17203333274161131147
81228 2 17460294582589721412
90316 7 17203605952401287569

> <PUBCHEM_SHAPE_MULTIPOLES>
269.99
6.38
1.91
1.28
1.64
0.41
-0.3
3.18
1.32
-2.93
0.22
0.48
-0.24
-0.19

> <PUBCHEM_SHAPE_SELFOVERLAP>
548.739

> <PUBCHEM_SHAPE_VOLUME>
157.8

> <PUBCHEM_COORDINATE_TYPE>
2
5
10

$$$$
82100531
  -OEChem-12271618433D

 34 34  0     1  0  0  0  0  0999 V2000
    1.2491    1.0529   -1.3552 O   0  0  0  0  0  0  0  0  0  0  0  0
    3.1790    0.0878    0.3090 N   0  0  0  0  0  0  0  0  0  0  0  0
    1.8517    0.3458    0.8710 C   0  0  2  0  0  0  0  0  0  0  0  0
   -0.5315    0.1027   -0.1593 C   0  0  0  0  0  0  0  0  0  0  0  0
    0.8559    0.5256   -0.2941 C   0  0  0  0  0  0  0  0  0  0  0  0
   -1.5795    1.0141   -0.2900 C   0  0  0  0  0  0  0  0  0  0  0  0
    1.8960    1.6038    1.7287 C   0  0  0  0  0  0  0  0  0  0  0  0
    3.3003   -1.3009   -0.1039 C   0  0  0  0  0  0  0  0  0  0  0  0
   -0.8034   -1.2395    0.1061 C   0  0  0  0  0  0  0  0  0  0  0  0
   -2.8993    0.5831   -0.1551 C   0  0  0  0  0  0  0  0  0  0  0  0
   -3.1712   -0.7590    0.1105 C   0  0  0  0  0  0  0  0  0  0  0  0
   -2.1232   -1.6703    0.2412 C   0  0  0  0  0  0  0  0  0  0  0  0
   -1.3164    2.4568   -0.5753 C   0  0  0  0  0  0  0  0  0  0  0  0
    4.6741   -1.5819   -0.6886 C   0  0  0  0  0  0  0  0  0  0  0  0
   -4.5817   -1.2209    0.2551 C   0  0  0  0  0  0  0  0  0  0  0  0
    1.5342   -0.4852    1.5117 H   0  0  0  0  0  0  0  0  0  0  0  0
    3.8941    0.2860    1.0089 H   0  0  0  0  0  0  0  0  0  0  0  0
    2.1938    2.4807    1.1421 H   0  0  0  0  0  0  0  0  0  0  0  0
    0.9076    1.8174    2.1504 H   0  0  0  0  0  0  0  0  0  0  0  0
    2.5984    1.4935    2.5620 H   0  0  0  0  0  0  0  0  0  0  0  0
    3.1433   -1.9714    0.7497 H   0  0  0  0  0  0  0  0  0  0  0  0
    2.5505   -1.5489   -0.8638 H   0  0  0  0  0  0  0  0  0  0  0  0
    0.0008   -1.9641    0.2045 H   0  0  0  0  0  0  0  0  0  0  0  0
   -3.7197    1.2898   -0.2559 H   0  0  0  0  0  0  0  0  0  0  0  0
   -2.3218   -2.7185    0.4485 H   0  0  0  0  0  0  0  0  0  0  0  0
   -0.5685    2.8646    0.1124 H   0  0  0  0  0  0  0  0  0  0  0  0
   -0.9730    2.5861   -1.6066 H   0  0  0  0  0  0  0  0  0  0  0  0
   -2.2203    3.0634   -0.4503 H   0  0  0  0  0  0  0  0  0  0  0  0
    4.8651   -0.9557   -1.5667 H   0  0  0  0  0  0  0  0  0  0  0  0
    5.4640   -1.3925    0.0460 H   0  0  0  0  0  0  0  0  0  0  0  0
    4.7466   -2.6293   -0.9988 H   0  0  0  0  0  0  0  0  0  0  0  0
   -4.9076   -1.1128    1.2943 H   0  0  0  0  0  0  0  0  0  0  0  0
   -5.2539   -0.6412   -0.3867 H   0  0  0  0  0  0  0  0  0  0  0  0
   -4.6872   -2.2712   -0.0375 H   0  0  0  0  0  0  0  0  0  0  0  0
  1  5  2  0  0  0  0
  2  3  1  0  0  0  0
  2  8  1  0  0  0  0
  2 17  1  0  0  0  0
  3  5  1  0  0  0  0
  3  7  1  0  0  0  0
  3 16  1  0  0  0  0
  4  5  1  0  0  0  0
  4  6  2  0  0  0  0
  4  9  1  0  0  0  0
  6 10  1  0  0  0  0
  6 13  1  0  0  0  0
  7 18  1  0  0  0  0
  7 19  1  0  0  0  0
  7 20  1  0  0  0  0
  8 14  1  0  0  0  0
  8 21  1  0  0  0  0
  8 22  1  0  0  0  0
  9 12  2  0  0  0  0
  9 23  1  0  0  0  0
 10 11  2  0  0  0  0
 10 24  1  0  0  0  0
 11 12  1  0  0  0  0
 11 15  1  0  0  0  0
 12 25  1  0  0  0  0
 13 26  1  0  0  0  0
 13 27  1  0  0  0  0
 13 28  1  0  0  0  0
 14 29  1  0  0  0  0
 14 30  1  0  0  0  0
 14 31  1  0  0  0  0
 15 32  1  0  0  0  0
 15 33  1  0  0  0  0
 15 34  1  0  0  0  0
M  END
> <PUBCHEM_COMPOUND_CID>
82100531

> <PUBCHEM_CONFORMER_RMSD>
0.6

> <PUBCHEM_CONFORMER_DIVERSEORDER>
1
59
70
38
34
67
72
18
52
21
24
27
7
60
64
56
48
44
14
25
39
45
47
9
55
37
33
71
66
49
10
51
69
22
46
65
20
54
17
53
5
40
42
13
4
35
41
12
43
23
62
31
63
28
57
30
6
19
50
61
32
15
26
3
36
11
29
68
2
16
8
58

> <PUBCHEM_MMFF94_PARTIAL_CHARGES>
17
1 -0.57
10 -0.15
11 -0.14
12 -0.15
13 0.14
15 0.14
17 0.36
2 -0.9
23 0.15
24 0.15
25 0.15
3 0.33
4 0.09
5 0.42
6 -0.14
8 0.27
9 -0.15

> <PUBCHEM_EFFECTIVE_ROTOR_COUNT>
4

> <PUBCHEM_PHARMACOPHORE_FEATURES>
4
1 1 acceptor
1 2 cation
1 2 donor
6 4 6 9 10 11 12 rings

> <PUBCHEM_HEAVY_ATOM_COUNT>
15

> <PUBCHEM_ATOM_DEF_STEREO_COUNT>
0

> <PUBCHEM_ATOM_UDEF_STEREO_COUNT>
1

> <PUBCHEM_BOND_DEF_STEREO_COUNT>
0

> <PUBCHEM_BOND_UDEF_STEREO_COUNT>
0

> <PUBCHEM_ISOTOPIC_ATOM_COUNT>
0

> <PUBCHEM_COMPONENT_COUNT>
1

> <PUBCHEM_CACTVS_TAUTO_COUNT>
28

> <PUBCHEM_CONFORMER_ID>
04E4C13300000001

> <PUBCHEM_MMFF94_ENERGY>
31.6772

> <PUBCHEM_FEATURE_SELFOVERLAP>
20.297

> <PUBCHEM_SHAPE_FINGERPRINT>
10130415 120 17896033411920556097
10465860 250 18130503021040305922
10465860 71 17821453447776917566
10618630 7 18333730251531781887
11543360 7 13623530194848291563
12032990 46 18335423499770996259
12186901 62 18041276561070864447
124424 183 17845929620066873816
12507560 14 17489588969503460274
12507560 40 18272081708436178504
12932764 1 17846211219550020516
13581323 91 18412823607480033839
13675066 3 18335979878566801707
14252887 29 18264489657844799691
14993402 34 17167864157702407646
15219456 202 18201147828082304544
16752209 62 17894898616988763359
16945 1 17240748610712954923
17804303 29 18412546479078941410
18186145 218 16805878602258612719
19049666 15 18199735960794841544
19422 9 17532089406496626250
20510252 161 18411132533085615489
20559304 39 18116716403210489365
20871999 31 17967817098408265566
22094290 60 18261679177449225822
23175994 123 17703509879253202096
23402539 116 18343295968940330567
23463225 33 18334015025238574263
23559900 14 18410848867839009924
2748010 2 18336530699221381669
31174 14 17988072413004976728
3286 77 17918275376461377177
4340502 62 14979962475957405391
474 4 16372149891242840092
6049 1 18342164558137104192
7364860 26 18191590954750241316

> <PUBCHEM_SHAPE_MULTIPOLES>
297.84
7.4
2.11
1.04
2.19
0.5
0.19
-4.64
-0.15
-0.1
-0.07
0.65
0.45
1.09

> <PUBCHEM_SHAPE_SELFOVERLAP>
603.249

> <PUBCHEM_SHAPE_VOLUME>
175.7

> <PUBCHEM_COORDINATE_TYPE>
2
5
10

$$$$
82281626
  -OEChem-12271618483D

 29 29  0     1  0  0  0  0  0999 V2000
   -1.5827    1.2123   -1.4582 O   0  0  0  0  0  0  0  0  0  0  0  0
    3.3342    1.1616   -0.1040 O   0  0  0  0  0  0  0  0  0  0  0  0
   -3.3427    0.6667    0.8233 N   0  0  0  0  0  0  0  0  0  0  0  0
   -2.6497   -0.3538    0.0344 C   0  0  2  0  0  0  0  0  0  0  0  0
   -1.4140    0.2948   -0.6269 C   0  0  0  0  0  0  0  0  0  0  0  0
   -0.0713   -0.1612   -0.3040 C   0  0  0  0  0  0  0  0  0  0  0  0
   -3.5915   -0.9043   -1.0286 C   0  0  0  0  0  0  0  0  0  0  0  0
    1.0005    0.7299   -0.3599 C   0  0  0  0  0  0  0  0  0  0  0  0
    0.1449   -1.4900    0.0617 C   0  0  0  0  0  0  0  0  0  0  0  0
    2.2883    0.2925   -0.0501 C   0  0  0  0  0  0  0  0  0  0  0  0
   -2.6767    0.8683    2.0998 C   0  0  0  0  0  0  0  0  0  0  0  0
    1.4326   -1.9275    0.3712 C   0  0  0  0  0  0  0  0  0  0  0  0
    2.5043   -1.0363    0.3156 C   0  0  0  0  0  0  0  0  0  0  0  0
    4.6236    0.6470    0.2257 C   0  0  0  0  0  0  0  0  0  0  0  0
   -2.3748   -1.1878    0.6854 H   0  0  0  0  0  0  0  0  0  0  0  0
   -3.9608   -0.1155   -1.6942 H   0  0  0  0  0  0  0  0  0  0  0  0
   -3.0752   -1.6412   -1.6539 H   0  0  0  0  0  0  0  0  0  0  0  0
   -4.4579   -1.3973   -0.5742 H   0  0  0  0  0  0  0  0  0  0  0  0
   -4.3003    0.3656    1.0046 H   0  0  0  0  0  0  0  0  0  0  0  0
    0.8449    1.7694   -0.6387 H   0  0  0  0  0  0  0  0  0  0  0  0
   -0.6557   -2.2226    0.0822 H   0  0  0  0  0  0  0  0  0  0  0  0
   -1.6555    1.2414    1.9750 H   0  0  0  0  0  0  0  0  0  0  0  0
   -2.6534   -0.0494    2.6970 H   0  0  0  0  0  0  0  0  0  0  0  0
   -3.2239    1.6218    2.6756 H   0  0  0  0  0  0  0  0  0  0  0  0
    1.6016   -2.9643    0.6477 H   0  0  0  0  0  0  0  0  0  0  0  0
    3.4778   -1.4433    0.5669 H   0  0  0  0  0  0  0  0  0  0  0  0
    5.3354    1.4736    0.1307 H   0  0  0  0  0  0  0  0  0  0  0  0
    4.9394   -0.1293   -0.4796 H   0  0  0  0  0  0  0  0  0  0  0  0
    4.6670    0.3058    1.2656 H   0  0  0  0  0  0  0  0  0  0  0  0
  1  5  2  0  0  0  0
  2 10  1  0  0  0  0
  2 14  1  0  0  0  0
  3  4  1  0  0  0  0
  3 11  1  0  0  0  0
  3 19  1  0  0  0  0
  4  5  1  0  0  0  0
  4  7  1  0  0  0  0
  4 15  1  0  0  0  0
  5  6  1  0  0  0  0
  6  8  2  0  0  0  0
  6  9  1  0  0  0  0
  7 16  1  0  0  0  0
  7 17  1  0  0  0  0
  7 18  1  0  0  0  0
  8 10  1  0  0  0  0
  8 20  1  0  0  0  0
  9 12  2  0  0  0  0
  9 21  1  0  0  0  0
 10 13  2  0  0  0  0
 11 22  1  0  0  0  0
 11 23  1  0  0  0  0
 11 24  1  0  0  0  0
 12 13  1  0  0  0  0
 12 25  1  0  0  0  0
 13 26  1  0  0  0  0
 14 27  1  0  0  0  0
 14 28  1  0  0  0  0
 14 29  1  0  0  0  0
M  END
> <PUBCHEM_COMPOUND_CID>
82281626

> <PUBCHEM_CONFORMER_RMSD>
0.6

> <PUBCHEM_CONFORMER_DIVERSEORDER>
2
53
4
93
47
31
59
60
74
17
39
90
49
43
86
11
76
61
65
34
87
71
50
20
80
68
13
32
10
26
30
16
85
62
73
83
40
57
88
8
82
37
19
78
64
52
7
14
84
38
51
45
18
77
21
94
12
5
42
56
27
25
15
81
58
48
46
3
92
89
54
91
41
79
55
63
28
6
36
75
67
9
35
69
44
22
1
70
72
29
24
23
33
66

> <PUBCHEM_MMFF94_PARTIAL_CHARGES>
18
1 -0.57
10 0.08
11 0.27
12 -0.15
13 -0.15
14 0.28
19 0.36
2 -0.36
20 0.15
21 0.15
25 0.15
26 0.15
3 -0.9
4 0.33
5 0.42
6 0.09
8 -0.15
9 -0.15

> <PUBCHEM_EFFECTIVE_ROTOR_COUNT>
4

> <PUBCHEM_PHARMACOPHORE_FEATURES>
5
1 1 acceptor
1 2 acceptor
1 3 cation
1 3 donor
6 6 8 9 10 12 13 rings

> <PUBCHEM_HEAVY_ATOM_COUNT>
14

> <PUBCHEM_ATOM_DEF_STEREO_COUNT>
0

> <PUBCHEM_ATOM_UDEF_STEREO_COUNT>
1

> <PUBCHEM_BOND_DEF_STEREO_COUNT>
0

> <PUBCHEM_BOND_UDEF_STEREO_COUNT>
0

> <PUBCHEM_ISOTOPIC_ATOM_COUNT>
0

> <PUBCHEM_COMPONENT_COUNT>
1

> <PUBCHEM_CACTVS_TAUTO_COUNT>
2

> <PUBCHEM_CONFORMER_ID>
04E7849A00000002

> <PUBCHEM_MMFF94_ENERGY>
43.1591

> <PUBCHEM_FEATURE_SELFOVERLAP>
25.372

> <PUBCHEM_SHAPE_FINGERPRINT>
10219947 1 18040713684210949868
10980938 120 18408600345111628334
11132069 177 18259984907197952342
11471102 22 17968100793703609512
12186901 62 16056887926831884921
12346645 44 18344150288815657786
124424 183 16226037920735093701
12491281 212 18060429009749365274
12932764 1 18261959522538580719
13380535 76 18261949743336150746
13693222 15 18040150703981806267
13764800 53 16200160842093815283
14325111 11 18334286557239205908
15219456 202 18041274353283548884
15309172 13 18334297586530780906
15375358 24 17313098644747425743
15775835 57 18412826888792836983
15852999 172 15213285388611578555
16945 1 17894920636874743846
17844478 74 17822017471092361085
18186145 218 18343023268365397708
19422 9 17989207018847412422
200 152 18270667758200249407
201361 129 18058460819669327410
20279233 1 17095241414998980779
204376 136 18261113036540877236
20645477 70 18116417176970693559
20711983 171 17274829017108289203
21524375 3 18338229479294064086
22094290 60 16630526262640471591
23048698 100 18271810069023980195
23236772 104 18272934925370002771
23402539 116 17561075938544615292
23402655 69 18337656556315558991
23419403 2 15534948897959131046
23493267 7 16343433825278876651
23559900 14 15719387288289561802
2748010 2 17969776376547143918
3248919 1 17631723864286765103
458136 41 18262818297445084786
4990 188 17988651800383516558
5902787 121 15286227080044695841
74978 22 10447633717063179261
77492 1 18060134310726527555
81228 2 17613991215959149666

> <PUBCHEM_SHAPE_MULTIPOLES>
271.39
6.91
1.52
1.23
2.53
0.47
-0.32
-1.61
-0.56
0.27
-0.22
-1.31
-0.4
-0.89

> <PUBCHEM_SHAPE_SELFOVERLAP>
552.732

> <PUBCHEM_SHAPE_VOLUME>
159.5

> <PUBCHEM_COORDINATE_TYPE>
2
5
10

$$$$
91696115
  -OEChem-12271618463D

 34 34  0     1  0  0  0  0  0999 V2000
    1.6996    2.0319   -0.4827 O   0  0  0  0  0  0  0  0  0  0  0  0
    2.9956   -0.5519   -0.0653 N   0  0  0  0  0  0  0  0  0  0  0  0
    1.8749   -0.3221   -0.9792 C   0  0  1  0  0  0  0  0  0  0  0  0
    1.1074    0.9319   -0.5064 C   0  0  0  0  0  0  0  0  0  0  0  0
   -0.2794    0.8387   -0.0781 C   0  0  0  0  0  0  0  0  0  0  0  0
    2.4029   -0.1183   -2.3932 C   0  0  0  0  0  0  0  0  0  0  0  0
   -2.4462   -0.2209   -0.2189 C   0  0  0  0  0  0  0  0  0  0  0  0
    2.5399   -1.2022    1.1527 C   0  0  0  0  0  0  0  0  0  0  0  0
   -1.1160   -0.1320   -0.6293 C   0  0  0  0  0  0  0  0  0  0  0  0
   -3.3413   -1.2578   -0.8088 C   0  0  0  0  0  0  0  0  0  0  0  0
   -0.7731    1.7206    0.8833 C   0  0  0  0  0  0  0  0  0  0  0  0
   -2.9399    0.6610    0.7425 C   0  0  0  0  0  0  0  0  0  0  0  0
   -2.1034    1.6319    1.2934 C   0  0  0  0  0  0  0  0  0  0  0  0
    3.6944   -1.4461    2.1097 C   0  0  0  0  0  0  0  0  0  0  0  0
   -3.3153   -2.5644   -0.0197 C   0  0  0  0  0  0  0  0  0  0  0  0
    1.2375   -1.2099   -0.9982 H   0  0  0  0  0  0  0  0  0  0  0  0
    3.6913   -1.1469   -0.5154 H   0  0  0  0  0  0  0  0  0  0  0  0
    3.0987    0.7269   -2.4504 H   0  0  0  0  0  0  0  0  0  0  0  0
    2.9240   -1.0114   -2.7549 H   0  0  0  0  0  0  0  0  0  0  0  0
    1.5786    0.0928   -3.0835 H   0  0  0  0  0  0  0  0  0  0  0  0
    1.7978   -0.5848    1.6708 H   0  0  0  0  0  0  0  0  0  0  0  0
    2.0703   -2.1664    0.9233 H   0  0  0  0  0  0  0  0  0  0  0  0
   -0.7671   -0.8084   -1.4040 H   0  0  0  0  0  0  0  0  0  0  0  0
   -4.3709   -0.8812   -0.8542 H   0  0  0  0  0  0  0  0  0  0  0  0
   -3.0533   -1.4550   -1.8490 H   0  0  0  0  0  0  0  0  0  0  0  0
   -0.1359    2.4804    1.3282 H   0  0  0  0  0  0  0  0  0  0  0  0
   -3.9738    0.6010    1.0721 H   0  0  0  0  0  0  0  0  0  0  0  0
   -2.4876    2.3175    2.0430 H   0  0  0  0  0  0  0  0  0  0  0  0
    4.4515   -2.0971    1.6598 H   0  0  0  0  0  0  0  0  0  0  0  0
    4.1768   -0.5050    2.3946 H   0  0  0  0  0  0  0  0  0  0  0  0
    3.3334   -1.9302    3.0229 H   0  0  0  0  0  0  0  0  0  0  0  0
   -2.3067   -2.9907    0.0068 H   0  0  0  0  0  0  0  0  0  0  0  0
   -3.9830   -3.2982   -0.4820 H   0  0  0  0  0  0  0  0  0  0  0  0
   -3.6428   -2.4094    1.0139 H   0  0  0  0  0  0  0  0  0  0  0  0
  1  4  2  0  0  0  0
  2  3  1  0  0  0  0
  2  8  1  0  0  0  0
  2 17  1  0  0  0  0
  3  4  1  0  0  0  0
  3  6  1  0  0  0  0
  3 16  1  0  0  0  0
  4  5  1  0  0  0  0
  5  9  1  0  0  0  0
  5 11  2  0  0  0  0
  6 18  1  0  0  0  0
  6 19  1  0  0  0  0
  6 20  1  0  0  0  0
  7  9  2  0  0  0  0
  7 10  1  0  0  0  0
  7 12  1  0  0  0  0
  8 14  1  0  0  0  0
  8 21  1  0  0  0  0
  8 22  1  0  0  0  0
  9 23  1  0  0  0  0
 10 15  1  0  0  0  0
 10 24  1  0  0  0  0
 10 25  1  0  0  0  0
 11 13  1  0  0  0  0
 11 26  1  0  0  0  0
 12 13  2  0  0  0  0
 12 27  1  0  0  0  0
 13 28  1  0  0  0  0
 14 29  1  0  0  0  0
 14 30  1  0  0  0  0
 14 31  1  0  0  0  0
 15 32  1  0  0  0  0
 15 33  1  0  0  0  0
 15 34  1  0  0  0  0
M  END
> <PUBCHEM_COMPOUND_CID>
91696115

> <PUBCHEM_CONFORMER_RMSD>
0.6

> <PUBCHEM_CONFORMER_DIVERSEORDER>
1
137
84
178
244
98
20
87
91
31
279
34
186
47
108
172
233
271
213
106
46
131
93
267
2
229
141
228
82
205
295
230
94
49
336
328
135
176
235
308
165
174
297
142
155
208
264
109
88
240
287
159
57
342
147
18
188
302
334
276
227
72
10
203
143
196
19
250
206
281
36
285
17
102
245
43
151
347
78
216
161
221
234
97
291
277
272
248
134
14
218
101
253
309
33
260
64
120
223
75
210
158
292
298
166
169
262
239
225
32
199
83
207
340
118
214
204
179
303
332
122
185
74
76
299
301
128
217
105
30
266
322
119
219
312
132
232
190
56
330
220
175
318
327
226
38
71
249
306
339
149
66
335
153
59
192
50
191
242
181
81
138
345
37
305
55
42
11
154
319
274
300
48
85
344
68
311
338
187
15
307
314
167
170
148
99
238
152
22
329
313
268
45
325
224
349
343
270
247
201
348
215
284
24
104
294
40
222
182
65
317
25
326
29
113
316
23
200
231
275
280
146
96
7
265
16
60
180
237
211
296
150
251
255
136
67
212
39
304
9
35
139
3
257
140
70
130
171
28
246
346
194
310
77
258
189
144
321
115
278
173
315
160
61
324
252
21
341
263
320
283
86
12
198
6
103
256
133
126
111
123
323
259
184
261
53
157
8
183
163
333
110
5
290
44
273
79
241
89
156
124
13
112
127
26
58
80
100
52
117
269
63
337
54
162
209
254
51
4
177
286
41
116
282
114
331
243
202
107
69
95
168
27
193
289
145
90
125
288
92
129
195
236
293
164
121
62
197
73

> <PUBCHEM_MMFF94_PARTIAL_CHARGES>
17
1 -0.57
10 0.14
11 -0.15
12 -0.15
13 -0.15
17 0.36
2 -0.9
23 0.15
26 0.15
27 0.15
28 0.15
3 0.33
4 0.42
5 0.09
7 -0.14
8 0.27
9 -0.15

> <PUBCHEM_EFFECTIVE_ROTOR_COUNT>
5

> <PUBCHEM_PHARMACOPHORE_FEATURES>
5
1 1 acceptor
1 15 hydrophobe
1 2 cation
1 2 donor
6 5 7 9 11 12 13 rings

> <PUBCHEM_HEAVY_ATOM_COUNT>
15

> <PUBCHEM_ATOM_DEF_STEREO_COUNT>
0

> <PUBCHEM_ATOM_UDEF_STEREO_COUNT>
1

> <PUBCHEM_BOND_DEF_STEREO_COUNT>
0

> <PUBCHEM_BOND_UDEF_STEREO_COUNT>
0

> <PUBCHEM_ISOTOPIC_ATOM_COUNT>
0

> <PUBCHEM_COMPONENT_COUNT>
1

> <PUBCHEM_CACTVS_TAUTO_COUNT>
2

> <PUBCHEM_CONFORMER_ID>
05772BF300000001

> <PUBCHEM_MMFF94_ENERGY>
26.4039

> <PUBCHEM_FEATURE_SELFOVERLAP>
25.371

> <PUBCHEM_SHAPE_FINGERPRINT>
10366900 7 16701739333059062604
11137873 295 16009596746009514074
11578080 2 18115846590681802548
11680611 10 18411426102368114205
11769659 78 18334569183356978327
12824470 246 18261105318316244219
12932764 1 18188224142629260629
13083527 12 16698890683431593549
13294875 104 15540672371494176264
14178342 30 18200877253648331339
15295992 7 15481006518403765643
15375462 189 18187091637151984682
15852999 172 16879629521286107848
16945 1 18199764543818176357
19049666 15 16485298205593856288
19786989 88 15865509183453547348
20361792 2 17604432877731313268
20645477 70 16153714219182161514
20715346 28 16845577469747760620
212916 134 17769090147097162265
21452121 199 18056466490587078977
21452121 71 18260540130721473266
21501925 9 18130781295828440277
21524375 3 17908709780135742476
21650355 55 18199734882499613601
22112679 90 18264217923970194252
23114952 82 13985535546329142790
232386 152 18411418375932990734
23419403 2 17696423616738051689
23532345 11 18129654188898949338
23557571 272 17632860802222414281
23559900 14 17631461076897323820
2748010 2 16545800375106443293
5161694 15 14273454738977857058
5902787 121 18341893043125865939
6049 1 16486705683582998524
81228 2 17774169998323291337

> <PUBCHEM_SHAPE_MULTIPOLES>
297.84
6.31
2.17
1.78
0.62
0.3
0.11
3.73
-1.44
-1.4
-0.56
2.12
0.34
-1.6

> <PUBCHEM_SHAPE_SELFOVERLAP>
598.658

> <PUBCHEM_SHAPE_VOLUME>
176.5

> <PUBCHEM_COORDINATE_TYPE>
2
5
10

$$$$
91696118
  -OEChem-12271618403D

 31 31  0     1  0  0  0  0  0999 V2000
   -0.7968   -1.0055   -1.3866 O   0  0  0  0  0  0  0  0  0  0  0  0
   -2.8422   -0.2985    0.2691 N   0  0  0  0  0  0  0  0  0  0  0  0
   -1.5055   -0.4416    0.8492 C   0  0  2  0  0  0  0  0  0  0  0  0
   -0.4769   -0.4792   -0.3005 C   0  0  0  0  0  0  0  0  0  0  0  0
    0.8582    0.0756   -0.1232 C   0  0  0  0  0  0  0  0  0  0  0  0
   -1.4371   -1.7272    1.6632 C   0  0  0  0  0  0  0  0  0  0  0  0
   -3.0961    1.0848   -0.0995 C   0  0  0  0  0  0  0  0  0  0  0  0
    1.9948   -0.7204   -0.2640 C   0  0  0  0  0  0  0  0  0  0  0  0
    0.9886    1.4280    0.1923 C   0  0  0  0  0  0  0  0  0  0  0  0
    3.2619   -0.1642   -0.0893 C   0  0  0  0  0  0  0  0  0  0  0  0
   -4.4811    1.2469   -0.7026 C   0  0  0  0  0  0  0  0  0  0  0  0
    1.8840   -2.1715   -0.6016 C   0  0  0  0  0  0  0  0  0  0  0  0
    2.2558    1.9844    0.3671 C   0  0  0  0  0  0  0  0  0  0  0  0
    3.3925    1.1884    0.2263 C   0  0  0  0  0  0  0  0  0  0  0  0
   -1.2845    0.3939    1.5237 H   0  0  0  0  0  0  0  0  0  0  0  0
   -3.5455   -0.5921    0.9471 H   0  0  0  0  0  0  0  0  0  0  0  0
   -1.6346   -2.6083    1.0416 H   0  0  0  0  0  0  0  0  0  0  0  0
   -0.4395   -1.8553    2.0978 H   0  0  0  0  0  0  0  0  0  0  0  0
   -2.1612   -1.7176    2.4851 H   0  0  0  0  0  0  0  0  0  0  0  0
   -3.0222    1.7370    0.7791 H   0  0  0  0  0  0  0  0  0  0  0  0
   -2.3624    1.4335   -0.8352 H   0  0  0  0  0  0  0  0  0  0  0  0
    0.1139    2.0644    0.2988 H   0  0  0  0  0  0  0  0  0  0  0  0
    4.1579   -0.7698   -0.1970 H   0  0  0  0  0  0  0  0  0  0  0  0
   -4.5929    0.6361   -1.6048 H   0  0  0  0  0  0  0  0  0  0  0  0
   -5.2602    0.9534    0.0090 H   0  0  0  0  0  0  0  0  0  0  0  0
   -4.6538    2.2920   -0.9790 H   0  0  0  0  0  0  0  0  0  0  0  0
    1.1714   -2.6765    0.0586 H   0  0  0  0  0  0  0  0  0  0  0  0
    1.5709   -2.2991   -1.6427 H   0  0  0  0  0  0  0  0  0  0  0  0
    2.8431   -2.6872   -0.4803 H   0  0  0  0  0  0  0  0  0  0  0  0
    2.3575    3.0378    0.6112 H   0  0  0  0  0  0  0  0  0  0  0  0
    4.3791    1.6219    0.3617 H   0  0  0  0  0  0  0  0  0  0  0  0
  1  4  2  0  0  0  0
  2  3  1  0  0  0  0
  2  7  1  0  0  0  0
  2 16  1  0  0  0  0
  3  4  1  0  0  0  0
  3  6  1  0  0  0  0
  3 15  1  0  0  0  0
  4  5  1  0  0  0  0
  5  8  1  0  0  0  0
  5  9  2  0  0  0  0
  6 17  1  0  0  0  0
  6 18  1  0  0  0  0
  6 19  1  0  0  0  0
  7 11  1  0  0  0  0
  7 20  1  0  0  0  0
  7 21  1  0  0  0  0
  8 10  2  0  0  0  0
  8 12  1  0  0  0  0
  9 13  1  0  0  0  0
  9 22  1  0  0  0  0
 10 14  1  0  0  0  0
 10 23  1  0  0  0  0
 11 24  1  0  0  0  0
 11 25  1  0  0  0  0
 11 26  1  0  0  0  0
 12 27  1  0  0  0  0
 12 28  1  0  0  0  0
 12 29  1  0  0  0  0
 13 14  2  0  0  0  0
 13 30  1  0  0  0  0
 14 31  1  0  0  0  0
M  END
> <PUBCHEM_COMPOUND_CID>
91696118

> <PUBCHEM_CONFORMER_RMSD>
0.6

> <PUBCHEM_CONFORMER_DIVERSEORDER>
1
54
20
69
8
59
38
36
63
15
5
76
78
68
79
44
2
52
57
45
17
74
58
33
56
61
50
75
30
71
70
66
10
65
64
35
13
48
4
51
21
62
49
67
37
42
40
28
18
72
22
60
6
16
39
23
7
12
25
29
53
11
24
26
77
43
34
3
73
14
47
46
41
9
27
19
32
55
31

> <PUBCHEM_MMFF94_PARTIAL_CHARGES>
17
1 -0.57
10 -0.15
12 0.14
13 -0.15
14 -0.15
16 0.36
2 -0.9
22 0.15
23 0.15
3 0.33
30 0.15
31 0.15
4 0.42
5 0.09
7 0.27
8 -0.14
9 -0.15

> <PUBCHEM_EFFECTIVE_ROTOR_COUNT>
4

> <PUBCHEM_PHARMACOPHORE_FEATURES>
4
1 1 acceptor
1 2 cation
1 2 donor
6 5 8 9 10 13 14 rings

> <PUBCHEM_HEAVY_ATOM_COUNT>
14

> <PUBCHEM_ATOM_DEF_STEREO_COUNT>
0

> <PUBCHEM_ATOM_UDEF_STEREO_COUNT>
1

> <PUBCHEM_BOND_DEF_STEREO_COUNT>
0

> <PUBCHEM_BOND_UDEF_STEREO_COUNT>
0

> <PUBCHEM_ISOTOPIC_ATOM_COUNT>
0

> <PUBCHEM_COMPONENT_COUNT>
1

> <PUBCHEM_CACTVS_TAUTO_COUNT>
2

> <PUBCHEM_CONFORMER_ID>
05772BF600000001

> <PUBCHEM_MMFF94_ENERGY>
29.0982

> <PUBCHEM_FEATURE_SELFOVERLAP>
20.297

> <PUBCHEM_SHAPE_FINGERPRINT>
10608611 8 18336265738209424705
10980938 120 18342458140578707532
11471102 20 18341891870684326732
124424 183 18408604747241921896
12500047 106 18113339725475815763
12507560 18 18041556919424598338
12654215 9 18411984650470777972
13380535 76 18409445894827131426
13571099 22 18201159853864035214
14115302 16 17677064438456552446
14648413 74 18335425728510960808
14993402 34 17632297856558743980
15219456 202 18409173220486310627
15442244 35 17983581801358605120
15775835 57 17917153921613772032
16945 1 18200892720057367562
18186145 218 18261678052326173105
19049666 15 18261404295073455811
19422 9 13407092400261752697
20201158 50 18411421682936359560
20645477 70 18202004283031352959
20715346 28 18338250352286405618
21947302 44 18411698751361117921
22096605 113 18201432601694118609
22892500 29 18343295968355157684
23402539 116 18188483709621346327
23402655 69 18201151071057212013
23526113 38 18192439562704219331
25 1 18408600336041483509
2748010 2 18269284636870357228
276578 36 16805601421916902057
63268167 104 17988369264317696968
633830 44 18262512577520328909
69090 78 18411697703879805511

> <PUBCHEM_SHAPE_MULTIPOLES>
277.26
6.34
2.06
1.06
4.32
0.17
0.15
-2.9
-0.69
-0.63
0.17
0.48
0.47
1.07

> <PUBCHEM_SHAPE_SELFOVERLAP>
561.247

> <PUBCHEM_SHAPE_VOLUME>
163.2

> <PUBCHEM_COORDINATE_TYPE>
2
5
10

$$$$
91696119
  -OEChem-12271618493D

 31 31  0     1  0  0  0  0  0999 V2000
   -1.1606    0.5649   -2.0311 O   0  0  0  0  0  0  0  0  0  0  0  0
   -2.8392    0.0515    0.3030 N   0  0  0  0  0  0  0  0  0  0  0  0
   -1.6974    0.9681    0.2857 C   0  0  1  0  0  0  0  0  0  0  0  0
   -0.7452    0.5417   -0.8529 C   0  0  0  0  0  0  0  0  0  0  0  0
    0.6111    0.1030   -0.5643 C   0  0  0  0  0  0  0  0  0  0  0  0
   -2.1892    2.3919    0.0598 C   0  0  0  0  0  0  0  0  0  0  0  0
   -2.4880   -1.1936    0.9664 C   0  0  0  0  0  0  0  0  0  0  0  0
    1.2873    0.6106    0.5450 C   0  0  0  0  0  0  0  0  0  0  0  0
    2.5884    0.1903    0.8214 C   0  0  0  0  0  0  0  0  0  0  0  0
    1.2359   -0.8251   -1.3975 C   0  0  0  0  0  0  0  0  0  0  0  0
   -3.6653   -2.1537    0.9908 C   0  0  0  0  0  0  0  0  0  0  0  0
    3.2132   -0.7378   -0.0118 C   0  0  0  0  0  0  0  0  0  0  0  0
    2.5369   -1.2453   -1.1214 C   0  0  0  0  0  0  0  0  0  0  0  0
    3.3121    0.7336    2.0067 C   0  0  0  0  0  0  0  0  0  0  0  0
   -1.2045    0.9485    1.2611 H   0  0  0  0  0  0  0  0  0  0  0  0
   -3.6189    0.4811    0.8011 H   0  0  0  0  0  0  0  0  0  0  0  0
   -2.7464    2.4862   -0.8794 H   0  0  0  0  0  0  0  0  0  0  0  0
   -2.8422    2.7205    0.8758 H   0  0  0  0  0  0  0  0  0  0  0  0
   -1.3429    3.0858    0.0062 H   0  0  0  0  0  0  0  0  0  0  0  0
   -1.6590   -1.6906    0.4505 H   0  0  0  0  0  0  0  0  0  0  0  0
   -2.1730   -1.0052    1.9999 H   0  0  0  0  0  0  0  0  0  0  0  0
    0.8400    1.3622    1.1888 H   0  0  0  0  0  0  0  0  0  0  0  0
    0.7239   -1.2359   -2.2638 H   0  0  0  0  0  0  0  0  0  0  0  0
   -4.5143   -1.7261    1.5348 H   0  0  0  0  0  0  0  0  0  0  0  0
   -3.9965   -2.3984   -0.0241 H   0  0  0  0  0  0  0  0  0  0  0  0
   -3.3824   -3.0873    1.4877 H   0  0  0  0  0  0  0  0  0  0  0  0
    4.2271   -1.0724    0.1911 H   0  0  0  0  0  0  0  0  0  0  0  0
    3.0233   -1.9683   -1.7697 H   0  0  0  0  0  0  0  0  0  0  0  0
    3.7823    1.6892    1.7543 H   0  0  0  0  0  0  0  0  0  0  0  0
    2.6268    0.8880    2.8471 H   0  0  0  0  0  0  0  0  0  0  0  0
    4.0897    0.0430    2.3506 H   0  0  0  0  0  0  0  0  0  0  0  0
  1  4  2  0  0  0  0
  2  3  1  0  0  0  0
  2  7  1  0  0  0  0
  2 16  1  0  0  0  0
  3  4  1  0  0  0  0
  3  6  1  0  0  0  0
  3 15  1  0  0  0  0
  4  5  1  0  0  0  0
  5  8  1  0  0  0  0
  5 10  2  0  0  0  0
  6 17  1  0  0  0  0
  6 18  1  0  0  0  0
  6 19  1  0  0  0  0
  7 11  1  0  0  0  0
  7 20  1  0  0  0  0
  7 21  1  0  0  0  0
  8  9  2  0  0  0  0
  8 22  1  0  0  0  0
  9 12  1  0  0  0  0
  9 14  1  0  0  0  0
 10 13  1  0  0  0  0
 10 23  1  0  0  0  0
 11 24  1  0  0  0  0
 11 25  1  0  0  0  0
 11 26  1  0  0  0  0
 12 13  2  0  0  0  0
 12 27  1  0  0  0  0
 13 28  1  0  0  0  0
 14 29  1  0  0  0  0
 14 30  1  0  0  0  0
 14 31  1  0  0  0  0
M  END
> <PUBCHEM_COMPOUND_CID>
91696119

> <PUBCHEM_CONFORMER_RMSD>
0.6

> <PUBCHEM_CONFORMER_DIVERSEORDER>
1
100
101
133
74
99
137
96
45
35
130
89
132
121
28
97
104
5
42
33
115
90
92
48
127
111
16
36
59
120
63
84
123
56
77
94
14
76
71
65
72
124
82
102
135
69
79
95
67
53
7
105
31
55
12
118
119
43
110
64
122
52
93
61
54
39
4
30
126
29
88
17
136
73
128
46
113
75
50
27
91
98
6
22
86
108
129
131
68
125
21
15
23
66
117
13
18
103
60
11
114
40
83
38
116
78
62
85
10
47
49
70
41
44
20
87
26
109
51
80
57
25
81
9
2
58
24
112
37
34
8
32
107
19
3
106
134

> <PUBCHEM_MMFF94_PARTIAL_CHARGES>
17
1 -0.57
10 -0.15
12 -0.15
13 -0.15
14 0.14
16 0.36
2 -0.9
22 0.15
23 0.15
27 0.15
28 0.15
3 0.33
4 0.42
5 0.09
7 0.27
8 -0.15
9 -0.14

> <PUBCHEM_EFFECTIVE_ROTOR_COUNT>
4

> <PUBCHEM_PHARMACOPHORE_FEATURES>
4
1 1 acceptor
1 2 cation
1 2 donor
6 5 8 9 10 12 13 rings

> <PUBCHEM_HEAVY_ATOM_COUNT>
14

> <PUBCHEM_ATOM_DEF_STEREO_COUNT>
0

> <PUBCHEM_ATOM_UDEF_STEREO_COUNT>
1

> <PUBCHEM_BOND_DEF_STEREO_COUNT>
0

> <PUBCHEM_BOND_UDEF_STEREO_COUNT>
0

> <PUBCHEM_ISOTOPIC_ATOM_COUNT>
0

> <PUBCHEM_COMPONENT_COUNT>
1

> <PUBCHEM_CACTVS_TAUTO_COUNT>
2

> <PUBCHEM_CONFORMER_ID>
05772BF700000001

> <PUBCHEM_MMFF94_ENERGY>
26.7756

> <PUBCHEM_FEATURE_SELFOVERLAP>
20.297

> <PUBCHEM_SHAPE_FINGERPRINT>
11471102 22 17846782879792102454
12202030 40 18263086530747647054
124424 183 17842272567283647468
12491281 212 14620790548239223778
12500047 106 18118687612683970437
12932764 1 17489584554593545788
13294875 104 16610525798144618248
14178342 30 18187922820450062434
15653759 3 18271533000303984936
15852999 172 17680681779892688495
15906896 17 15720506530759725549
16945 1 18058433452427834988
17844478 74 18130793351601283920
18380122 1 18202002161327778545
19049666 15 17984712112196685219
19107657 9 13758085103260681059
20361792 2 16805333222831744143
20671657 53 16878501379575063623
20715346 28 18131069294770984540
22112679 90 17313684667012155261
23559900 14 18338525144330738782
251288 83 18266743677988051098
2748010 2 17916863526259181996
3086196 2 18261105305436285945
3248919 1 18335695010154561588
568465 68 17988932123924304754
603831 33 16081377349328019438
6049 1 18131082493237068668
63268167 104 16701725073878416304
6338986 31 16081357587893223066
77492 1 16660652829612268536
81228 2 18336558131520529073
88987 49 18114185168387108381

> <PUBCHEM_SHAPE_MULTIPOLES>
277.26
6.01
1.87
1.66
0.61
0.22
0.05
-1.68
-2.89
1.59
-0.23
-0.4
-0.11
1.88

> <PUBCHEM_SHAPE_SELFOVERLAP>
559.832

> <PUBCHEM_SHAPE_VOLUME>
163.8

> <PUBCHEM_COORDINATE_TYPE>
2
5
10

$$$$
91844466
  -OEChem-12271619533D

 42 43  0     1  0  0  0  0  0999 V2000
    2.2622   -0.1422   -0.2907 O   0  0  0  0  0  0  0  0  0  0  0  0
    1.2515   -0.3005    1.7726 O   0  0  0  0  0  0  0  0  0  0  0  0
   -1.9984    1.4750   -0.6985 N   0  0  0  0  0  0  0  0  0  0  0  0
   -0.8238    1.2963    0.1643 C   0  0  2  0  0  0  0  0  0  0  0  0
    0.1149    2.5064    0.0632 C   0  0  0  0  0  0  0  0  0  0  0  0
   -0.0947    0.0171   -0.2431 C   0  0  2  0  0  0  0  0  0  0  0  0
   -0.6192    3.8040    0.3900 C   0  0  0  0  0  0  0  0  0  0  0  0
   -1.8823    3.9316   -0.4544 C   0  0  0  0  0  0  0  0  0  0  0  0
   -2.7495    2.6798   -0.3450 C   0  0  0  0  0  0  0  0  0  0  0  0
   -0.9853   -1.2122   -0.1444 C   0  0  0  0  0  0  0  0  0  0  0  0
    1.1907   -0.1537    0.5587 C   0  0  0  0  0  0  0  0  0  0  0  0
   -0.8511   -2.2472   -1.0698 C   0  0  0  0  0  0  0  0  0  0  0  0
   -1.9364   -1.3043    0.8717 C   0  0  0  0  0  0  0  0  0  0  0  0
   -1.6679   -3.3742   -0.9793 C   0  0  0  0  0  0  0  0  0  0  0  0
   -2.7532   -2.4312    0.9624 C   0  0  0  0  0  0  0  0  0  0  0  0
    3.5417   -0.3190    0.3259 C   0  0  0  0  0  0  0  0  0  0  0  0
   -2.6191   -3.4663    0.0369 C   0  0  0  0  0  0  0  0  0  0  0  0
    4.6155   -0.2813   -0.7506 C   0  0  0  0  0  0  0  0  0  0  0  0
    6.0044   -0.4781   -0.1700 C   0  0  0  0  0  0  0  0  0  0  0  0
   -1.1422    1.2449    1.2130 H   0  0  0  0  0  0  0  0  0  0  0  0
    0.9602    2.4122    0.7542 H   0  0  0  0  0  0  0  0  0  0  0  0
    0.5354    2.5766   -0.9488 H   0  0  0  0  0  0  0  0  0  0  0  0
    0.1888    0.1250   -1.3018 H   0  0  0  0  0  0  0  0  0  0  0  0
    0.0383    4.6625    0.2140 H   0  0  0  0  0  0  0  0  0  0  0  0
   -0.8869    3.8158    1.4537 H   0  0  0  0  0  0  0  0  0  0  0  0
   -2.4549    4.8092   -0.1340 H   0  0  0  0  0  0  0  0  0  0  0  0
   -1.6047    4.0960   -1.5033 H   0  0  0  0  0  0  0  0  0  0  0  0
   -2.6240    0.6747   -0.6353 H   0  0  0  0  0  0  0  0  0  0  0  0
   -3.1566    2.5860    0.6692 H   0  0  0  0  0  0  0  0  0  0  0  0
   -3.6034    2.7761   -1.0244 H   0  0  0  0  0  0  0  0  0  0  0  0
   -0.1124   -2.1889   -1.8648 H   0  0  0  0  0  0  0  0  0  0  0  0
   -2.0578   -0.5424    1.6334 H   0  0  0  0  0  0  0  0  0  0  0  0
   -1.5628   -4.1805   -1.6993 H   0  0  0  0  0  0  0  0  0  0  0  0
   -3.4890   -2.5069    1.7578 H   0  0  0  0  0  0  0  0  0  0  0  0
    3.5616   -1.2845    0.8448 H   0  0  0  0  0  0  0  0  0  0  0  0
    3.7072    0.4855    1.0520 H   0  0  0  0  0  0  0  0  0  0  0  0
   -3.2539   -4.3446    0.1086 H   0  0  0  0  0  0  0  0  0  0  0  0
    4.4122   -1.0556   -1.5000 H   0  0  0  0  0  0  0  0  0  0  0  0
    4.5666    0.6749   -1.2851 H   0  0  0  0  0  0  0  0  0  0  0  0
    6.2419    0.3080    0.5538 H   0  0  0  0  0  0  0  0  0  0  0  0
    6.0851   -1.4461    0.3347 H   0  0  0  0  0  0  0  0  0  0  0  0
    6.7559   -0.4459   -0.9650 H   0  0  0  0  0  0  0  0  0  0  0  0
  1 11  1  0  0  0  0
  1 16  1  0  0  0  0
  2 11  2  0  0  0  0
  3  4  1  0  0  0  0
  3  9  1  0  0  0  0
  3 28  1  0  0  0  0
  4  5  1  0  0  0  0
  4  6  1  0  0  0  0
  4 20  1  0  0  0  0
  5  7  1  0  0  0  0
  5 21  1  0  0  0  0
  5 22  1  0  0  0  0
  6 10  1  0  0  0  0
  6 11  1  0  0  0  0
  6 23  1  0  0  0  0
  7  8  1  0  0  0  0
  7 24  1  0  0  0  0
  7 25  1  0  0  0  0
  8  9  1  0  0  0  0
  8 26  1  0  0  0  0
  8 27  1  0  0  0  0
  9 29  1  0  0  0  0
  9 30  1  0  0  0  0
 10 12  2  0  0  0  0
 10 13  1  0  0  0  0
 12 14  1  0  0  0  0
 12 31  1  0  0  0  0
 13 15  2  0  0  0  0
 13 32  1  0  0  0  0
 14 17  2  0  0  0  0
 14 33  1  0  0  0  0
 15 17  1  0  0  0  0
 15 34  1  0  0  0  0
 16 18  1  0  0  0  0
 16 35  1  0  0  0  0
 16 36  1  0  0  0  0
 17 37  1  0  0  0  0
 18 19  1  0  0  0  0
 18 38  1  0  0  0  0
 18 39  1  0  0  0  0
 19 40  1  0  0  0  0
 19 41  1  0  0  0  0
 19 42  1  0  0  0  0
M  END
> <PUBCHEM_COMPOUND_CID>
91844466

> <PUBCHEM_CONFORMER_RMSD>
0.8

> <PUBCHEM_CONFORMER_DIVERSEORDER>
1
57
207
32
42
158
82
134
187
105
162
157
24
138
89
124
185
17
168
163
152
92
160
135
50
146
197
174
204
93
164
46
33
173
144
61
78
132
155
74
51
59
81
125
188
45
40
161
90
208
68
201
141
165
72
206
196
73
129
14
88
153
189
25
118
86
137
98
195
169
91
126
75
184
143
130
180
85
95
147
109
139
190
26
145
202
7
198
181
131
193
186
120
3
99
30
47
117
111
29
182
41
178
108
179
9
53
15
87
112
113
176
16
44
39
21
80
133
97
58
103
136
31
66
83
23
172
96
123
171
60
200
122
27
65
79
102
62
67
11
56
19
167
63
116
52
107
5
10
142
101
209
55
71
94
43
13
76
36
177
69
183
194
100
150
115
119
28
35
149
4
121
159
8
77
166
156
191
84
18
38
210
140
20
49
148
70
2
114
54
192
12
48
199
175
37
154
6
127
22
64
205
106
170
34
203
104
151
110
128

> <PUBCHEM_MMFF94_PARTIAL_CHARGES>
20
1 -0.43
10 -0.14
11 0.66
12 -0.15
13 -0.15
14 -0.15
15 -0.15
16 0.28
17 -0.15
2 -0.57
28 0.36
3 -0.9
31 0.15
32 0.15
33 0.15
34 0.15
37 0.15
4 0.27
6 0.2
9 0.27

> <PUBCHEM_EFFECTIVE_ROTOR_COUNT>
7.2

> <PUBCHEM_PHARMACOPHORE_FEATURES>
6
1 19 hydrophobe
1 2 acceptor
1 3 cation
1 3 donor
6 10 12 13 14 15 17 rings
6 3 4 5 7 8 9 rings

> <PUBCHEM_HEAVY_ATOM_COUNT>
19

> <PUBCHEM_ATOM_DEF_STEREO_COUNT>
0

> <PUBCHEM_ATOM_UDEF_STEREO_COUNT>
2

> <PUBCHEM_BOND_DEF_STEREO_COUNT>
0

> <PUBCHEM_BOND_UDEF_STEREO_COUNT>
0

> <PUBCHEM_ISOTOPIC_ATOM_COUNT>
0

> <PUBCHEM_COMPONENT_COUNT>
1

> <PUBCHEM_CACTVS_TAUTO_COUNT>
1

> <PUBCHEM_CONFORMER_ID>
05796F7200000001

> <PUBCHEM_MMFF94_ENERGY>
28.2971

> <PUBCHEM_FEATURE_SELFOVERLAP>
30.446

> <PUBCHEM_SHAPE_FINGERPRINT>
10411042 1 18194120943621799086
11056379 131 18338812169217839110
11578080 2 17702093871084776433
11833330 49 18409165553975163292
12173636 292 18194959643692490972
12553582 1 18264762341129762346
12643181 29 17979365158332031502
12714826 92 18201440294244465490
12788726 201 18261104166869454874
13583140 156 17917131842231531834
13955234 65 16969715390778399345
14508225 48 18197766898577999439
15042514 8 18409737252507765802
17539 30 18341040891370259734
1813 80 18053965097175839382
18785283 64 17256538417689104872
20101258 96 18337401555522587208
20600515 1 17915485941152417931
20645476 183 18192425282175057644
21041028 32 18190471651812438251
21339142 126 18411985788426361686
21426921 1 18410014334455638750
21524375 3 17906158560623161440
2255824 54 17041762560745485637
22849341 161 18122365715766650835
23419403 2 17631441427089713489
23557571 272 18342461435230145388
23559900 14 18200027332220194706
23566358 27 17257943017934815375
23598288 3 18262252074488979886
2748010 2 18125419037522790264
3091708 16 9203090986545397993
3759504 43 18265894649079785588
4175511 71 18122068873180566323
4409770 3 18409728430850778799
458136 41 17693100660644233737
6138700 20 16827838787113251582
6992083 37 18126872575105270507
7364860 26 17402894921716554355
81228 2 18196626649322369249
90316 7 18340214088680653210
9981440 41 17905044755328712472

> <PUBCHEM_SHAPE_MULTIPOLES>
374.29
6.87
5.26
1.05
15.86
3.32
0.16
-3.43
-0.59
-7.03
-0.78
-0.12
-0.4
0.47

> <PUBCHEM_SHAPE_SELFOVERLAP>
765.269

> <PUBCHEM_SHAPE_VOLUME>
215.3

> <PUBCHEM_COORDINATE_TYPE>
2
5
10

$$$$
91936940
  -OEChem-12271619533D

 46 46  0     0  0  0  0  0  0999 V2000
    0.8505    1.1983    0.1879 O   0  0  0  0  0  0  0  0  0  0  0  0
   -0.0498    2.7425   -1.2627 O   0  0  0  0  0  0  0  0  0  0  0  0
   -6.1044   -0.5617   -0.2416 O   0  5  0  0  0  0  0  0  0  0  0  0
   -5.0879   -1.9533    1.1182 O   0  0  0  0  0  0  0  0  0  0  0  0
    3.4984   -1.1721   -0.2413 N   0  0  0  0  0  0  0  0  0  0  0  0
   -5.0713   -0.9651    0.3452 N   0  3  0  0  0  0  0  0  0  0  0  0
    3.1837    1.0549    0.9100 C   0  0  0  0  0  0  0  0  0  0  0  0
    2.9416   -0.4791    0.9176 C   0  0  0  0  0  0  0  0  0  0  0  0
    2.1335    1.7963    0.0522 C   0  0  0  0  0  0  0  0  0  0  0  0
    3.0947    1.5520    2.3683 C   0  0  0  0  0  0  0  0  0  0  0  0
    4.5874    1.3883    0.3706 C   0  0  0  0  0  0  0  0  0  0  0  0
    2.5866   -1.0784   -1.3818 C   0  0  0  0  0  0  0  0  0  0  0  0
    3.7698   -2.5733    0.0804 C   0  0  0  0  0  0  0  0  0  0  0  0
    2.4910   -3.3129    0.4353 C   0  0  0  0  0  0  0  0  0  0  0  0
    3.1795   -1.7401   -2.6143 C   0  0  0  0  0  0  0  0  0  0  0  0
   -0.1554    1.7732   -0.5273 C   0  0  0  0  0  0  0  0  0  0  0  0
   -1.4371    1.0592   -0.2997 C   0  0  0  0  0  0  0  0  0  0  0  0
   -2.5986    1.4895   -0.9413 C   0  0  0  0  0  0  0  0  0  0  0  0
   -1.4799   -0.0420    0.5553 C   0  0  0  0  0  0  0  0  0  0  0  0
   -3.8028    0.8188   -0.7277 C   0  0  0  0  0  0  0  0  0  0  0  0
   -2.6840   -0.7128    0.7691 C   0  0  0  0  0  0  0  0  0  0  0  0
   -3.8454   -0.2823    0.1276 C   0  0  0  0  0  0  0  0  0  0  0  0
    1.8863   -0.7170    1.0931 H   0  0  0  0  0  0  0  0  0  0  0  0
    3.4632   -0.8566    1.8097 H   0  0  0  0  0  0  0  0  0  0  0  0
    2.4203    1.8280   -1.0039 H   0  0  0  0  0  0  0  0  0  0  0  0
    2.0695    2.8436    0.3776 H   0  0  0  0  0  0  0  0  0  0  0  0
    3.8562    1.0808    3.0001 H   0  0  0  0  0  0  0  0  0  0  0  0
    3.2454    2.6359    2.4288 H   0  0  0  0  0  0  0  0  0  0  0  0
    2.1130    1.3279    2.8007 H   0  0  0  0  0  0  0  0  0  0  0  0
    5.3636    0.8536    0.9298 H   0  0  0  0  0  0  0  0  0  0  0  0
    4.7945    2.4609    0.4650 H   0  0  0  0  0  0  0  0  0  0  0  0
    4.6980    1.1352   -0.6893 H   0  0  0  0  0  0  0  0  0  0  0  0
    4.2989   -3.0854   -0.7303 H   0  0  0  0  0  0  0  0  0  0  0  0
    4.4644   -2.6265    0.9289 H   0  0  0  0  0  0  0  0  0  0  0  0
    1.5776   -1.4567   -1.1842 H   0  0  0  0  0  0  0  0  0  0  0  0
    2.4624   -0.0382   -1.6750 H   0  0  0  0  0  0  0  0  0  0  0  0
    4.2129   -1.4206   -2.7886 H   0  0  0  0  0  0  0  0  0  0  0  0
    1.9533   -2.8803    1.2834 H   0  0  0  0  0  0  0  0  0  0  0  0
    1.8023   -3.4198   -0.4072 H   0  0  0  0  0  0  0  0  0  0  0  0
    3.1510   -2.8324   -2.5600 H   0  0  0  0  0  0  0  0  0  0  0  0
    2.5985   -1.4558   -3.4991 H   0  0  0  0  0  0  0  0  0  0  0  0
    2.7539   -4.3344    0.7365 H   0  0  0  0  0  0  0  0  0  0  0  0
   -2.5859    2.3451   -1.6113 H   0  0  0  0  0  0  0  0  0  0  0  0
   -0.6010   -0.4109    1.0756 H   0  0  0  0  0  0  0  0  0  0  0  0
   -4.6876    1.1820   -1.2443 H   0  0  0  0  0  0  0  0  0  0  0  0
   -2.6802   -1.5666    1.4419 H   0  0  0  0  0  0  0  0  0  0  0  0
  1  9  1  0  0  0  0
  1 16  1  0  0  0  0
  2 16  2  0  0  0  0
  3  6  1  0  0  0  0
  4  6  2  0  0  0  0
  5  8  1  0  0  0  0
  5 12  1  0  0  0  0
  5 13  1  0  0  0  0
  6 22  1  0  0  0  0
  7  8  1  0  0  0  0
  7  9  1  0  0  0  0
  7 10  1  0  0  0  0
  7 11  1  0  0  0  0
  8 23  1  0  0  0  0
  8 24  1  0  0  0  0
  9 25  1  0  0  0  0
  9 26  1  0  0  0  0
 10 27  1  0  0  0  0
 10 28  1  0  0  0  0
 10 29  1  0  0  0  0
 11 30  1  0  0  0  0
 11 31  1  0  0  0  0
 11 32  1  0  0  0  0
 12 15  1  0  0  0  0
 12 35  1  0  0  0  0
 12 36  1  0  0  0  0
 13 14  1  0  0  0  0
 13 33  1  0  0  0  0
 13 34  1  0  0  0  0
 14 38  1  0  0  0  0
 14 39  1  0  0  0  0
 14 42  1  0  0  0  0
 15 37  1  0  0  0  0
 15 40  1  0  0  0  0
 15 41  1  0  0  0  0
 16 17  1  0  0  0  0
 17 18  2  0  0  0  0
 17 19  1  0  0  0  0
 18 20  1  0  0  0  0
 18 43  1  0  0  0  0
 19 21  2  0  0  0  0
 19 44  1  0  0  0  0
 20 22  2  0  0  0  0
 20 45  1  0  0  0  0
 21 22  1  0  0  0  0
 21 46  1  0  0  0  0
M  CHG  2   3  -1   6   1
M  END
> <PUBCHEM_COMPOUND_CID>
91936940

> <PUBCHEM_CONFORMER_RMSD>
0.8

> <PUBCHEM_CONFORMER_DIVERSEORDER>
1
243
117
248
25
61
185
255
227
228
176
262
290
267
161
171
294
287
75
94
144
38
168
133
318
268
22
129
202
213
172
134
154
197
224
132
198
249
300
59
181
165
137
92
24
70
107
225
35
167
180
143
29
206
163
251
242
316
140
151
259
280
311
48
304
241
302
120
299
204
95
106
188
275
139
60
240
292
211
62
142
74
169
17
174
309
19
41
201
112
173
296
152
223
125
312
222
303
13
286
271
261
148
179
218
44
270
182
247
53
43
229
58
109
282
63
157
138
136
91
96
308
127
192
32
199
190
28
147
216
67
186
55
111
87
277
4
266
252
119
160
45
99
104
177
9
8
203
84
178
193
230
276
297
205
258
30
284
36
285
85
221
100
291
101
238
78
56
250
68
88
124
194
7
130
16
289
135
66
162
288
83
71
220
15
69
319
317
77
175
14
86
212
20
123
2
128
158
153
207
118
81
39
49
65
253
209
103
208
72
219
195
279
278
295
246
217
200
34
320
314
131
10
23
264
80
274
232
184
11
57
260
315
245
79
51
73
3
257
105
21
159
12
307
237
26
155
54
42
298
98
116
110
93
269
27
46
5
191
141
113
254
33
226
108
183
170
146
196
115
90
114
265
231
256
189
305
145
121
122
244
126
149
272
236
313
40
156
235
50
18
239
263
47
234
37
6
214
310
233
281
301
166
293
210
89
150
273
64
82
31
283
164
215
102
52
187
76
306
97

> <PUBCHEM_MMFF94_PARTIAL_CHARGES>
21
1 -0.43
12 0.27
13 0.27
16 0.63
17 0.09
18 -0.15
19 -0.15
2 -0.57
20 -0.15
21 -0.15
22 0.13
3 -0.52
4 -0.52
43 0.15
44 0.15
45 0.15
46 0.15
5 -0.81
6 0.91
8 0.27
9 0.28

> <PUBCHEM_EFFECTIVE_ROTOR_COUNT>
9

> <PUBCHEM_PHARMACOPHORE_FEATURES>
7
1 2 acceptor
1 3 acceptor
1 3 anion
1 4 acceptor
1 5 cation
3 7 10 11 hydrophobe
6 17 18 19 20 21 22 rings

> <PUBCHEM_HEAVY_ATOM_COUNT>
22

> <PUBCHEM_ATOM_DEF_STEREO_COUNT>
0

> <PUBCHEM_ATOM_UDEF_STEREO_COUNT>
0

> <PUBCHEM_BOND_DEF_STEREO_COUNT>
0

> <PUBCHEM_BOND_UDEF_STEREO_COUNT>
0

> <PUBCHEM_ISOTOPIC_ATOM_COUNT>
0

> <PUBCHEM_COMPONENT_COUNT>
1

> <PUBCHEM_CACTVS_TAUTO_COUNT>
1

> <PUBCHEM_CONFORMER_ID>
057AD8AC00000001

> <PUBCHEM_MMFF94_ENERGY>
66.419

> <PUBCHEM_FEATURE_SELFOVERLAP>
35.603

> <PUBCHEM_SHAPE_FINGERPRINT>
114674 6 18408319986621076658
12596602 18 16772951561753618003
12633257 1 17060328622071252094
12892183 10 18130785681122516217
13150687 139 17752506493095199324
13402501 40 18408603669279393098
13464513 79 18272093786306188566
13533116 47 18202844357671011587
13583140 156 17632285787943943529
13911882 115 18410579526081314938
14251740 57 17988372537014724815
14251764 30 16341481020072361846
14252887 29 18409165532321160984
14386348 63 18334856121263057729
14848160 33 18129656388164797990
14863182 85 18334861662324653676
15142526 21 16411512480088709488
15342816 4 17240754095043768408
15422964 175 18334850610804485180
15635459 17 18408324388925118338
15664445 248 18187377561873849556
1813 80 17676492756908497829
20397935 70 18059582420804653479
20645477 70 18202282481179852254
21033650 10 16516528768192424068
21279426 13 18188480260846887205
21285901 2 18040425586394824901
21521721 280 17987798648549844320
22182313 1 18335126584386785309
22224240 67 18128243679317095680
23557571 272 17968369078862647476
23559900 14 18189609463050784796
239999 70 18413674617096242638
31174 14 18131345285433102312
33824 294 18412259554215954794
3421961 26 18411978031762605794
34797466 226 11241968162474098073
4463277 69 18342461434881953325
5104073 3 18270960146398923617
5352402 22 18202288000218050293
621550 34 18339348760514281712
6669772 16 18201156642510217444
6823239 73 18408044000654261354
8988823 20 17775278391932742817
9709674 26 18260266364994657689

> <PUBCHEM_SHAPE_MULTIPOLES>
419.31
11.03
3.02
1.63
12.71
1.19
-0.36
4.7
1.52
-2.94
-0.06
-1.49
0.11
2.33

> <PUBCHEM_SHAPE_SELFOVERLAP>
850.077

> <PUBCHEM_SHAPE_VOLUME>
245.4

> <PUBCHEM_COORDINATE_TYPE>
2
5
10

$$$$
97711
  -OEChem-12271619593D

 31 32  0     1  0  0  0  0  0999 V2000
   -0.7441    0.6735    0.9419 O   0  0  0  0  0  0  0  0  0  0  0  0
   -2.2484   -1.0744   -0.7205 N   0  0  0  0  0  0  0  0  0  0  0  0
   -2.8939    0.0761   -0.0653 C   0  0  0  0  0  0  0  0  0  0  0  0
   -2.1249    0.4312    1.2193 C   0  0  0  0  0  0  0  0  0  0  0  0
   -0.1217   -0.4927    0.3882 C   0  0  1  0  0  0  0  0  0  0  0  0
   -0.8118   -0.8835   -0.9237 C   0  0  0  0  0  0  0  0  0  0  0  0
   -2.9628    1.2877   -1.0135 C   0  0  0  0  0  0  0  0  0  0  0  0
   -4.3255   -0.3453    0.3003 C   0  0  0  0  0  0  0  0  0  0  0  0
    1.3491   -0.2081    0.1751 C   0  0  0  0  0  0  0  0  0  0  0  0
    2.2833   -1.2381    0.2887 C   0  0  0  0  0  0  0  0  0  0  0  0
    1.7722    1.0848   -0.1348 C   0  0  0  0  0  0  0  0  0  0  0  0
    3.6392   -0.9756    0.0927 C   0  0  0  0  0  0  0  0  0  0  0  0
    3.1280    1.3473   -0.3310 C   0  0  0  0  0  0  0  0  0  0  0  0
    4.0614    0.3171   -0.2172 C   0  0  0  0  0  0  0  0  0  0  0  0
   -2.5319    1.3421    1.6726 H   0  0  0  0  0  0  0  0  0  0  0  0
   -2.2013   -0.3633    1.9731 H   0  0  0  0  0  0  0  0  0  0  0  0
   -0.2148   -1.3018    1.1261 H   0  0  0  0  0  0  0  0  0  0  0  0
   -0.6468   -0.1216   -1.6950 H   0  0  0  0  0  0  0  0  0  0  0  0
   -0.3828   -1.8155   -1.3098 H   0  0  0  0  0  0  0  0  0  0  0  0
   -2.6980   -1.2669   -1.6151 H   0  0  0  0  0  0  0  0  0  0  0  0
   -3.4695    1.0303   -1.9510 H   0  0  0  0  0  0  0  0  0  0  0  0
   -3.5239    2.1092   -0.5526 H   0  0  0  0  0  0  0  0  0  0  0  0
   -1.9716    1.6786   -1.2659 H   0  0  0  0  0  0  0  0  0  0  0  0
   -4.3292   -1.2176    0.9647 H   0  0  0  0  0  0  0  0  0  0  0  0
   -4.8539    0.4641    0.8172 H   0  0  0  0  0  0  0  0  0  0  0  0
   -4.9078   -0.6045   -0.5919 H   0  0  0  0  0  0  0  0  0  0  0  0
    1.9664   -2.2498    0.5277 H   0  0  0  0  0  0  0  0  0  0  0  0
    1.0644    1.9023   -0.2423 H   0  0  0  0  0  0  0  0  0  0  0  0
    4.3660   -1.7778    0.1805 H   0  0  0  0  0  0  0  0  0  0  0  0
    3.4568    2.3532   -0.5755 H   0  0  0  0  0  0  0  0  0  0  0  0
    5.1170    0.5213   -0.3709 H   0  0  0  0  0  0  0  0  0  0  0  0
  1  4  1  0  0  0  0
  1  5  1  0  0  0  0
  2  3  1  0  0  0  0
  2  6  1  0  0  0  0
  2 20  1  0  0  0  0
  3  4  1  0  0  0  0
  3  7  1  0  0  0  0
  3  8  1  0  0  0  0
  4 15  1  0  0  0  0
  4 16  1  0  0  0  0
  5  6  1  0  0  0  0
  5  9  1  0  0  0  0
  5 17  1  0  0  0  0
  6 18  1  0  0  0  0
  6 19  1  0  0  0  0
  7 21  1  0  0  0  0
  7 22  1  0  0  0  0
  7 23  1  0  0  0  0
  8 24  1  0  0  0  0
  8 25  1  0  0  0  0
  8 26  1  0  0  0  0
  9 10  2  0  0  0  0
  9 11  1  0  0  0  0
 10 12  1  0  0  0  0
 10 27  1  0  0  0  0
 11 13  2  0  0  0  0
 11 28  1  0  0  0  0
 12 14  2  0  0  0  0
 12 29  1  0  0  0  0
 13 14  1  0  0  0  0
 13 30  1  0  0  0  0
 14 31  1  0  0  0  0
M  END
> <PUBCHEM_COMPOUND_CID>
97711

> <PUBCHEM_CONFORMER_RMSD>
0.6

> <PUBCHEM_CONFORMER_DIVERSEORDER>
1
7
6
2
5
4
3

> <PUBCHEM_MMFF94_PARTIAL_CHARGES>
18
1 -0.56
10 -0.15
11 -0.15
12 -0.15
13 -0.15
14 -0.15
2 -0.9
20 0.36
27 0.15
28 0.15
29 0.15
3 0.27
30 0.15
31 0.15
4 0.28
5 0.42
6 0.27
9 -0.14

> <PUBCHEM_EFFECTIVE_ROTOR_COUNT>
2.2

> <PUBCHEM_PHARMACOPHORE_FEATURES>
6
1 1 acceptor
1 2 cation
1 2 donor
3 3 7 8 hydrophobe
6 1 2 3 4 5 6 rings
6 9 10 11 12 13 14 rings

> <PUBCHEM_HEAVY_ATOM_COUNT>
14

> <PUBCHEM_ATOM_DEF_STEREO_COUNT>
0

> <PUBCHEM_ATOM_UDEF_STEREO_COUNT>
1

> <PUBCHEM_BOND_DEF_STEREO_COUNT>
0

> <PUBCHEM_BOND_UDEF_STEREO_COUNT>
0

> <PUBCHEM_ISOTOPIC_ATOM_COUNT>
0

> <PUBCHEM_COMPONENT_COUNT>
1

> <PUBCHEM_CACTVS_TAUTO_COUNT>
1

> <PUBCHEM_CONFORMER_ID>
00017DAF00000001

> <PUBCHEM_MMFF94_ENERGY>
30.609

> <PUBCHEM_FEATURE_SELFOVERLAP>
30.446

> <PUBCHEM_SHAPE_FINGERPRINT>
10608611 8 18113615690115110596
10922523 26 18334290933726621068
10980938 120 18335139782815848442
11031198 65 18114188553200879382
11471102 20 18333450941656236966
12236239 1 18273498970408111698
12932764 1 18343013419477919104
13296908 3 18186801357254959664
13538477 17 18059849605966208374
13581323 91 17489586753400438826
14144814 61 18202567258986329010
14325111 11 18407477764734262728
14993402 34 18202004321991682052
15775835 57 18411984688666469908
16945 1 17060335219256945971
17844478 74 17676490535893219949
18186145 218 18412829079521615598
190213 19 18273495667472791946
19026448 4 17894349969155157339
19422 9 18343587343104631587
200 152 18343017783159371641
20279233 1 17095246925436636602
20281407 28 13398636060506214200
20645476 183 18272367611381876759
20645477 70 18335983065258851574
21119208 17 18272653445823855668
22854114 111 18410575115007580856
23048698 100 18410577288107947946
23402539 116 16845569790430754585
23402655 69 18410573963961756796
23463225 33 18201440233808883614
23559900 14 14996281401592940330
3248919 1 17632298956075672334
4028521 119 17459174214916870877
4175511 318 18272927224303665749
474 4 18193275424007782744
57812782 119 18113337513688802081
63268167 104 18410575084953404816
69090 78 18187365458502664467
74978 22 17774996946640748170
77492 1 18273497866511852362
77779 3 18334013891229947567
81228 2 15338300989859959618

> <PUBCHEM_SHAPE_MULTIPOLES>
277.26
7.65
1.33
0.97
0.02
0.16
0.04
0.37
-0.33
0.48
-0.19
-0.6
0.05
-0.08

> <PUBCHEM_SHAPE_SELFOVERLAP>
576.651

> <PUBCHEM_SHAPE_VOLUME>
158.2

> <PUBCHEM_COORDINATE_TYPE>
2
5
10

$$$$
