115808
  -OEChem-12271618283D

 26 26  0     1  0  0  0  0  0999 V2000
   -3.4933    0.6131   -0.0153 N   0  0  0  0  0  0  0  0  0  0  0  0
   -1.2327    0.1012   -0.8272 C   0  0  0  0  0  0  0  0  0  0  0  0
   -2.2361   -0.0566    0.3309 C   0  0  2  0  0  0  0  0  0  0  0  0
    0.2014   -0.0719   -0.4121 C   0  0  0  0  0  0  0  0  0  0  0  0
    0.9533    1.0185    0.0092 C   0  0  0  0  0  0  0  0  0  0  0  0
   -2.5436   -1.5199    0.6491 C   0  0  0  0  0  0  0  0  0  0  0  0
    0.7607   -1.3440   -0.4580 C   0  0  0  0  0  0  0  0  0  0  0  0
    2.2827    0.8348    0.3900 C   0  0  0  0  0  0  0  0  0  0  0  0
    0.3668    2.3909    0.0637 C   0  0  0  0  0  0  0  0  0  0  0  0
    2.0899   -1.5278   -0.0772 C   0  0  0  0  0  0  0  0  0  0  0  0
    2.8509   -0.4384    0.3467 C   0  0  0  0  0  0  0  0  0  0  0  0
   -1.3534    1.0788   -1.3109 H   0  0  0  0  0  0  0  0  0  0  0  0
   -1.4704   -0.6144   -1.6274 H   0  0  0  0  0  0  0  0  0  0  0  0
   -1.8450    0.4202    1.2376 H   0  0  0  0  0  0  0  0  0  0  0  0
   -1.6496   -2.0432    1.0015 H   0  0  0  0  0  0  0  0  0  0  0  0
   -2.9253   -2.0522   -0.2294 H   0  0  0  0  0  0  0  0  0  0  0  0
   -3.2950   -1.5997    1.4431 H   0  0  0  0  0  0  0  0  0  0  0  0
    0.1813   -2.2009   -0.7901 H   0  0  0  0  0  0  0  0  0  0  0  0
   -3.3221    1.6071   -0.1628 H   0  0  0  0  0  0  0  0  0  0  0  0
   -4.1438    0.5485    0.7668 H   0  0  0  0  0  0  0  0  0  0  0  0
    2.8902    1.6727    0.7216 H   0  0  0  0  0  0  0  0  0  0  0  0
   -0.5561    2.4069    0.6513 H   0  0  0  0  0  0  0  0  0  0  0  0
    1.0521    3.1006    0.5411 H   0  0  0  0  0  0  0  0  0  0  0  0
    0.1675    2.7647   -0.9458 H   0  0  0  0  0  0  0  0  0  0  0  0
    2.5328   -2.5188   -0.1119 H   0  0  0  0  0  0  0  0  0  0  0  0
    3.8860   -0.5816    0.6426 H   0  0  0  0  0  0  0  0  0  0  0  0
  1  3  1  0  0  0  0
  1 19  1  0  0  0  0
  1 20  1  0  0  0  0
  2  3  1  0  0  0  0
  2  4  1  0  0  0  0
  2 12  1  0  0  0  0
  2 13  1  0  0  0  0
  3  6  1  0  0  0  0
  3 14  1  0  0  0  0
  4  5  1  0  0  0  0
  4  7  2  0  0  0  0
  5  8  2  0  0  0  0
  5  9  1  0  0  0  0
  6 15  1  0  0  0  0
  6 16  1  0  0  0  0
  6 17  1  0  0  0  0
  7 10  1  0  0  0  0
  7 18  1  0  0  0  0
  8 11  1  0  0  0  0
  8 21  1  0  0  0  0
  9 22  1  0  0  0  0
  9 23  1  0  0  0  0
  9 24  1  0  0  0  0
 10 11  2  0  0  0  0
 10 25  1  0  0  0  0
 11 26  1  0  0  0  0
M  END
> <PUBCHEM_COMPOUND_CID>
115808

> <PUBCHEM_CONFORMER_RMSD>
0.4

> <PUBCHEM_CONFORMER_DIVERSEORDER>
1
9
8
11
4
12
7
6
2
5
3
10

> <PUBCHEM_MMFF94_PARTIAL_CHARGES>
16
1 -0.99
10 -0.15
11 -0.15
18 0.15
19 0.36
2 0.14
20 0.36
21 0.15
25 0.15
26 0.15
3 0.27
4 -0.14
5 -0.14
7 -0.15
8 -0.15
9 0.14

> <PUBCHEM_EFFECTIVE_ROTOR_COUNT>
2

> <PUBCHEM_PHARMACOPHORE_FEATURES>
3
1 1 cation
1 1 donor
6 4 5 7 8 10 11 rings

> <PUBCHEM_HEAVY_ATOM_COUNT>
11

> <PUBCHEM_ATOM_DEF_STEREO_COUNT>
0

> <PUBCHEM_ATOM_UDEF_STEREO_COUNT>
1

> <PUBCHEM_BOND_DEF_STEREO_COUNT>
0

> <PUBCHEM_BOND_UDEF_STEREO_COUNT>
0

> <PUBCHEM_ISOTOPIC_ATOM_COUNT>
0

> <PUBCHEM_COMPONENT_COUNT>
1

> <PUBCHEM_CACTVS_TAUTO_COUNT>
1

> <PUBCHEM_CONFORMER_ID>
0001C46000000001

> <PUBCHEM_MMFF94_ENERGY>
19.6998

> <PUBCHEM_FEATURE_SELFOVERLAP>
15.223

> <PUBCHEM_SHAPE_FINGERPRINT>
10130415 120 18335416816311137025
10219947 1 18343581832693018478
10857977 72 18336256907735363778
11471102 22 18338243772380645226
12251169 10 18338803415626005755
12382932 28 18411135827029827083
12696612 119 18339646757844382551
14648413 74 18335420235427247697
15775835 57 17346313842834318697
161256 15 18129102225888238804
16945 1 18341323423188369884
17841504 4 18337674229826328785
17990270 104 18336267941406165891
20201158 50 18335700511960188291
20871998 22 18056484945988099726
21501502 16 18262241148118519975
2748010 2 17911505511944949958
29004967 10 18410291402310587490
8809292 202 18261116227185022986

> <PUBCHEM_SHAPE_MULTIPOLES>
221.39
4.47
1.95
0.78
2.39
0.57
0.03
-0.8
-0.82
-0.39
-0.1
0.11
-0.07
0.34

> <PUBCHEM_SHAPE_SELFOVERLAP>
447.265

> <PUBCHEM_SHAPE_VOLUME>
130.1

> <PUBCHEM_COORDINATE_TYPE>
2
5
10

$$$$
