119057579
  -OEChem-12271619412D

 46 47  0     1  0  0  0  0  0999 V2000
    3.7026    0.0000    0.0000 Cl  0  0  0  0  0  0  0  0  0  0  0  0
    3.8163    7.5344    0.0000 O   0  0  0  0  0  0  0  0  0  0  0  0
    7.3606    6.3391    0.0000 O   0  0  0  0  0  0  0  0  0  0  0  0
    7.3606    4.7296    0.0000 O   0  0  0  0  0  0  0  0  0  0  0  0
    2.0843    6.5344    0.0000 N   0  0  0  0  0  0  0  0  0  0  0  0
    2.9503    6.0344    0.0000 C   0  0  3  0  0  0  0  0  0  0  0  0
    1.9797    7.5289    0.0000 C   0  0  0  0  0  0  0  0  0  0  0  0
    1.1707    6.1276    0.0000 C   0  0  0  0  0  0  0  0  0  0  0  0
    1.0016    7.7368    0.0000 C   0  0  0  0  0  0  0  0  0  0  0  0
    0.5016    6.8708    0.0000 C   0  0  0  0  0  0  0  0  0  0  0  0
    2.9503    5.0344    0.0000 C   0  0  0  0  0  0  0  0  0  0  0  0
    2.0843    4.5344    0.0000 C   0  0  0  0  0  0  0  0  0  0  0  0
    3.8163    6.5344    0.0000 C   0  0  0  0  0  0  0  0  0  0  0  0
    2.0843    3.5344    0.0000 C   0  0  0  0  0  0  0  0  0  0  0  0
    4.6823    6.0344    0.0000 C   0  0  0  0  0  0  0  0  0  0  0  0
    1.2182    3.0344    0.0000 C   0  0  0  0  0  0  0  0  0  0  0  0
    5.5484    6.5344    0.0000 C   0  0  0  0  0  0  0  0  0  0  0  0
    4.6823    5.0344    0.0000 C   0  0  0  0  0  0  0  0  0  0  0  0
    6.4144    6.0344    0.0000 C   0  0  0  0  0  0  0  0  0  0  0  0
    5.5484    4.5344    0.0000 C   0  0  0  0  0  0  0  0  0  0  0  0
    6.4144    5.0344    0.0000 C   0  0  0  0  0  0  0  0  0  0  0  0
    7.9442    5.5344    0.0000 C   0  0  0  0  0  0  0  0  0  0  0  0
    2.4134    5.7244    0.0000 H   0  0  0  0  0  0  0  0  0  0  0  0
    0.6691    5.7632    0.0000 H   0  0  0  0  0  0  0  0  0  0  0  0
    1.4807    5.5907    0.0000 H   0  0  0  0  0  0  0  0  0  0  0  0
    2.5997    7.5289    0.0000 H   0  0  0  0  0  0  0  0  0  0  0  0
    2.0446    8.1455    0.0000 H   0  0  0  0  0  0  0  0  0  0  0  0
    1.1932    8.3264    0.0000 H   0  0  0  0  0  0  0  0  0  0  0  0
    0.4352    7.9890    0.0000 H   0  0  0  0  0  0  0  0  0  0  0  0
    0.0000    7.2352    0.0000 H   0  0  0  0  0  0  0  0  0  0  0  0
    0.0867    6.4100    0.0000 H   0  0  0  0  0  0  0  0  0  0  0  0
    3.1623    4.4518    0.0000 H   0  0  0  0  0  0  0  0  0  0  0  0
    3.5609    5.1420    0.0000 H   0  0  0  0  0  0  0  0  0  0  0  0
    1.8722    5.1170    0.0000 H   0  0  0  0  0  0  0  0  0  0  0  0
    1.4737    4.4267    0.0000 H   0  0  0  0  0  0  0  0  0  0  0  0
    2.2963    2.9518    0.0000 H   0  0  0  0  0  0  0  0  0  0  0  0
    2.6949    3.6420    0.0000 H   0  0  0  0  0  0  0  0  0  0  0  0
    0.9082    3.5713    0.0000 H   0  0  0  0  0  0  0  0  0  0  0  0
    0.6813    2.7244    0.0000 H   0  0  0  0  0  0  0  0  0  0  0  0
    1.5282    2.4974    0.0000 H   0  0  0  0  0  0  0  0  0  0  0  0
    5.5484    7.1544    0.0000 H   0  0  0  0  0  0  0  0  0  0  0  0
    4.1454    4.7244    0.0000 H   0  0  0  0  0  0  0  0  0  0  0  0
    5.5484    3.9144    0.0000 H   0  0  0  0  0  0  0  0  0  0  0  0
    8.4051    5.1196    0.0000 H   0  0  0  0  0  0  0  0  0  0  0  0
    8.4051    5.9491    0.0000 H   0  0  0  0  0  0  0  0  0  0  0  0
    4.7025    0.0000    0.0000 H   0  0  0  0  0  0  0  0  0  0  0  0
  1 46  1  0  0  0  0
  2 13  2  0  0  0  0
  3 19  1  0  0  0  0
  3 22  1  0  0  0  0
  4 21  1  0  0  0  0
  4 22  1  0  0  0  0
  5  6  1  0  0  0  0
  5  7  1  0  0  0  0
  5  8  1  0  0  0  0
  6 11  1  0  0  0  0
  6 13  1  0  0  0  0
  6 23  1  0  0  0  0
  7  9  1  0  0  0  0
  7 26  1  0  0  0  0
  7 27  1  0  0  0  0
  8 10  1  0  0  0  0
  8 24  1  0  0  0  0
  8 25  1  0  0  0  0
  9 10  1  0  0  0  0
  9 28  1  0  0  0  0
  9 29  1  0  0  0  0
 10 30  1  0  0  0  0
 10 31  1  0  0  0  0
 11 12  1  0  0  0  0
 11 32  1  0  0  0  0
 11 33  1  0  0  0  0
 12 14  1  0  0  0  0
 12 34  1  0  0  0  0
 12 35  1  0  0  0  0
 13 15  1  0  0  0  0
 14 16  1  0  0  0  0
 14 36  1  0  0  0  0
 14 37  1  0  0  0  0
 15 17  2  0  0  0  0
 15 18  1  0  0  0  0
 16 38  1  0  0  0  0
 16 39  1  0  0  0  0
 16 40  1  0  0  0  0
 17 19  1  0  0  0  0
 17 41  1  0  0  0  0
 18 20  2  0  0  0  0
 18 42  1  0  0  0  0
 19 21  2  0  0  0  0
 20 21  1  0  0  0  0
 20 43  1  0  0  0  0
 22 44  1  0  0  0  0
 22 45  1  0  0  0  0
M  END
> <PUBCHEM_COMPOUND_CID>
119057579

> <PUBCHEM_COMPOUND_CANONICALIZED>
1

> <PUBCHEM_CACTVS_COMPLEXITY>
354

> <PUBCHEM_CACTVS_HBOND_ACCEPTOR>
4

> <PUBCHEM_CACTVS_HBOND_DONOR>
1

> <PUBCHEM_CACTVS_ROTATABLE_BOND>
6

> <PUBCHEM_CACTVS_SUBSKEYS>
AAADceB6MAAEAAAAAAAAAAAAAAAAAWJAAAAwAAAAAAAAAEgBAAAAHgAAAAAADCzBmAcyDoMABACIAqBSAAACCAAkIAAIiAGOiMgdJjKEtTukMSIkwBGOqYea3PPOIAABAAAAQABAAAIAAACAAAAAAAAAAA==

> <PUBCHEM_IUPAC_OPENEYE_NAME>
1-(1,3-benzodioxol-5-yl)-2-pyrrolidin-1-yl-hexan-1-one;hydrochloride

> <PUBCHEM_IUPAC_CAS_NAME>
1-(1,3-benzodioxol-5-yl)-2-(1-pyrrolidinyl)-1-hexanone;hydrochloride

> <PUBCHEM_IUPAC_NAME>
1-(1,3-benzodioxol-5-yl)-2-pyrrolidin-1-ylhexan-1-one;hydrochloride

> <PUBCHEM_IUPAC_SYSTEMATIC_NAME>
1-(1,3-benzodioxol-5-yl)-2-pyrrolidin-1-yl-hexan-1-one;hydrochloride

> <PUBCHEM_IUPAC_TRADITIONAL_NAME>
1-(1,3-benzodioxol-5-yl)-2-pyrrolidino-hexan-1-one;hydrochloride

> <PUBCHEM_IUPAC_INCHI>
InChI=1S/C17H23NO3.ClH/c1-2-3-6-14(18-9-4-5-10-18)17(19)13-7-8-15-16(11-13)21-12-20-15;/h7-8,11,14H,2-6,9-10,12H2,1H3;1H

> <PUBCHEM_IUPAC_INCHIKEY>
UDZJNLZRWBOFTK-UHFFFAOYSA-N

> <PUBCHEM_EXACT_MASS>
325.144

> <PUBCHEM_MOLECULAR_FORMULA>
C17H24ClNO3

> <PUBCHEM_MOLECULAR_WEIGHT>
325.833

> <PUBCHEM_OPENEYE_CAN_SMILES>
CCCCC(C(=O)C1=CC2=C(C=C1)OCO2)N3CCCC3.Cl

> <PUBCHEM_OPENEYE_ISO_SMILES>
CCCCC(C(=O)C1=CC2=C(C=C1)OCO2)N3CCCC3.Cl

> <PUBCHEM_CACTVS_TPSA>
38.8

> <PUBCHEM_MONOISOTOPIC_WEIGHT>
325.144

> <PUBCHEM_TOTAL_CHARGE>
0

> <PUBCHEM_HEAVY_ATOM_COUNT>
22

> <PUBCHEM_ATOM_DEF_STEREO_COUNT>
0

> <PUBCHEM_ATOM_UDEF_STEREO_COUNT>
1

> <PUBCHEM_BOND_DEF_STEREO_COUNT>
0

> <PUBCHEM_BOND_UDEF_STEREO_COUNT>
0

> <PUBCHEM_ISOTOPIC_ATOM_COUNT>
0

> <PUBCHEM_COMPONENT_COUNT>
2

> <PUBCHEM_CACTVS_TAUTO_COUNT>
1

> <PUBCHEM_COORDINATE_TYPE>
1
5
255

> <PUBCHEM_BONDANNOTATIONS>
15  17  8
15  18  8
17  19  8
18  20  8
19  21  8
20  21  8
6  11  3

$$$$
