65812
  -OEChem-12271619443D

 53 55  0     0  0  0  0  0  0999 V2000
    5.7907   -2.0027   -0.9952 S   0  0  0  0  0  0  0  0  0  0  0  0
    0.6885   -1.1553   -0.3956 N   0  0  0  0  0  0  0  0  0  0  0  0
   -3.0524   -0.2897   -0.4981 C   0  0  0  0  0  0  0  0  0  0  0  0
   -1.7063   -0.8495    0.0321 C   0  0  0  0  0  0  0  0  0  0  0  0
   -0.5436   -0.5971   -0.9347 C   0  0  0  0  0  0  0  0  0  0  0  0
   -3.1655    1.2264   -0.3994 C   0  0  0  0  0  0  0  0  0  0  0  0
   -4.2698   -0.9754    0.1150 C   0  0  0  0  0  0  0  0  0  0  0  0
    1.8039   -0.9310   -1.3077 C   0  0  0  0  0  0  0  0  0  0  0  0
    3.0885   -1.5313   -0.7351 C   0  0  0  0  0  0  0  0  0  0  0  0
   -2.4999    1.9109    0.6176 C   0  0  0  0  0  0  0  0  0  0  0  0
   -4.8377   -0.4728    1.2859 C   0  0  0  0  0  0  0  0  0  0  0  0
   -3.9353    1.9300   -1.3258 C   0  0  0  0  0  0  0  0  0  0  0  0
   -4.8147   -2.1054   -0.4951 C   0  0  0  0  0  0  0  0  0  0  0  0
    4.2676   -1.2826   -1.6727 C   0  0  0  0  0  0  0  0  0  0  0  0
   -2.6040    3.2990    0.7079 C   0  0  0  0  0  0  0  0  0  0  0  0
   -5.9504   -1.1001    1.8463 C   0  0  0  0  0  0  0  0  0  0  0  0
   -4.0391    3.3181   -1.2355 C   0  0  0  0  0  0  0  0  0  0  0  0
   -5.9275   -2.7325    0.0653 C   0  0  0  0  0  0  0  0  0  0  0  0
   -3.3736    4.0025   -0.2186 C   0  0  0  0  0  0  0  0  0  0  0  0
   -6.4953   -2.2300    1.2359 C   0  0  0  0  0  0  0  0  0  0  0  0
    6.4306   -0.6369   -0.0325 C   0  0  0  0  0  0  0  0  0  0  0  0
    6.6214   -0.7810    1.3418 C   0  0  0  0  0  0  0  0  0  0  0  0
    6.7385    0.5723   -0.6563 C   0  0  0  0  0  0  0  0  0  0  0  0
    7.1201    0.2840    2.0921 C   0  0  0  0  0  0  0  0  0  0  0  0
    7.2374    1.6371    0.0941 C   0  0  0  0  0  0  0  0  0  0  0  0
    7.4281    1.4929    1.4682 C   0  0  0  0  0  0  0  0  0  0  0  0
   -3.0781   -0.5196   -1.5744 H   0  0  0  0  0  0  0  0  0  0  0  0
   -1.8105   -1.9415    0.1216 H   0  0  0  0  0  0  0  0  0  0  0  0
   -1.4707   -0.5190    1.0484 H   0  0  0  0  0  0  0  0  0  0  0  0
   -0.4256    0.4802   -1.0984 H   0  0  0  0  0  0  0  0  0  0  0  0
   -0.7733   -1.0613   -1.9014 H   0  0  0  0  0  0  0  0  0  0  0  0
    0.8925   -0.7328    0.5096 H   0  0  0  0  0  0  0  0  0  0  0  0
    1.5938   -1.3949   -2.2790 H   0  0  0  0  0  0  0  0  0  0  0  0
    1.9469    0.1442   -1.4719 H   0  0  0  0  0  0  0  0  0  0  0  0
    3.2910   -1.0833    0.2465 H   0  0  0  0  0  0  0  0  0  0  0  0
    2.9500   -2.6093   -0.5806 H   0  0  0  0  0  0  0  0  0  0  0  0
   -1.9095    1.4133    1.3774 H   0  0  0  0  0  0  0  0  0  0  0  0
   -4.4319    0.3886    1.8052 H   0  0  0  0  0  0  0  0  0  0  0  0
   -4.4600    1.4091   -2.1222 H   0  0  0  0  0  0  0  0  0  0  0  0
   -4.3805   -2.5089   -1.4059 H   0  0  0  0  0  0  0  0  0  0  0  0
    4.0770   -1.7742   -2.6331 H   0  0  0  0  0  0  0  0  0  0  0  0
    4.3864   -0.2151   -1.8805 H   0  0  0  0  0  0  0  0  0  0  0  0
   -2.0907    3.8321    1.5029 H   0  0  0  0  0  0  0  0  0  0  0  0
   -6.3898   -0.7125    2.7608 H   0  0  0  0  0  0  0  0  0  0  0  0
   -4.6389    3.8658   -1.9564 H   0  0  0  0  0  0  0  0  0  0  0  0
   -6.3512   -3.6127   -0.4092 H   0  0  0  0  0  0  0  0  0  0  0  0
   -3.4558    5.0831   -0.1472 H   0  0  0  0  0  0  0  0  0  0  0  0
   -7.3608   -2.7192    1.6732 H   0  0  0  0  0  0  0  0  0  0  0  0
    6.3862   -1.7154    1.8453 H   0  0  0  0  0  0  0  0  0  0  0  0
    6.6089    0.7049   -1.7275 H   0  0  0  0  0  0  0  0  0  0  0  0
    7.2686    0.1720    3.1621 H   0  0  0  0  0  0  0  0  0  0  0  0
    7.4797    2.5778   -0.3918 H   0  0  0  0  0  0  0  0  0  0  0  0
    7.8169    2.3218    2.0524 H   0  0  0  0  0  0  0  0  0  0  0  0
  1 14  1  0  0  0  0
  1 21  1  0  0  0  0
  2  5  1  0  0  0  0
  2  8  1  0  0  0  0
  2 32  1  0  0  0  0
  3  4  1  0  0  0  0
  3  6  1  0  0  0  0
  3  7  1  0  0  0  0
  3 27  1  0  0  0  0
  4  5  1  0  0  0  0
  4 28  1  0  0  0  0
  4 29  1  0  0  0  0
  5 30  1  0  0  0  0
  5 31  1  0  0  0  0
  6 10  2  0  0  0  0
  6 12  1  0  0  0  0
  7 11  2  0  0  0  0
  7 13  1  0  0  0  0
  8  9  1  0  0  0  0
  8 33  1  0  0  0  0
  8 34  1  0  0  0  0
  9 14  1  0  0  0  0
  9 35  1  0  0  0  0
  9 36  1  0  0  0  0
 10 15  1  0  0  0  0
 10 37  1  0  0  0  0
 11 16  1  0  0  0  0
 11 38  1  0  0  0  0
 12 17  2  0  0  0  0
 12 39  1  0  0  0  0
 13 18  2  0  0  0  0
 13 40  1  0  0  0  0
 14 41  1  0  0  0  0
 14 42  1  0  0  0  0
 15 19  2  0  0  0  0
 15 43  1  0  0  0  0
 16 20  2  0  0  0  0
 16 44  1  0  0  0  0
 17 19  1  0  0  0  0
 17 45  1  0  0  0  0
 18 20  1  0  0  0  0
 18 46  1  0  0  0  0
 19 47  1  0  0  0  0
 20 48  1  0  0  0  0
 21 22  2  0  0  0  0
 21 23  1  0  0  0  0
 22 24  1  0  0  0  0
 22 49  1  0  0  0  0
 23 25  2  0  0  0  0
 23 50  1  0  0  0  0
 24 26  2  0  0  0  0
 24 51  1  0  0  0  0
 25 26  1  0  0  0  0
 25 52  1  0  0  0  0
 26 53  1  0  0  0  0
M  END
> <PUBCHEM_COMPOUND_CID>
65812

> <PUBCHEM_CONFORMER_RMSD>
1

> <PUBCHEM_CONFORMER_DIVERSEORDER>
5
230
177
48
79
192
152
174
235
260
166
81
133
229
8
71
87
74
215
195
238
191
108
126
253
248
183
42
180
239
83
267
119
89
216
224
77
244
104
214
137
62
198
153
67
207
18
261
29
53
122
197
242
86
176
6
90
106
243
206
91
221
210
41
134
103
13
219
1
56
202
28
75
223
163
227
141
265
118
254
105
157
96
4
211
155
95
92
47
232
58
218
112
187
45
262
145
35
49
38
233
121
190
7
212
249
149
109
237
225
98
51
259
245
250
129
15
69
146
158
208
179
61
228
222
132
171
185
186
120
82
266
22
178
241
110
88
162
16
264
269
156
251
193
135
65
34
97
127
111
93
70
203
50
213
173
73
256
31
217
148
46
150
168
144
200
11
94
160
172
27
43
85
184
20
220
57
140
39
231
154
201
100
37
204
123
234
125
102
2
147
64
117
268
116
14
68
188
54
165
226
209
40
194
10
247
12
80
143
136
3
101
24
182
189
17
124
130
246
55
164
170
72
33
44
255
181
59
76
113
36
128
257
142
25
263
114
151
63
60
19
99
258
78
30
169
196
52
240
84
66
131
205
236
138
32
252
199
175
159
139
9
21
115
161
167
107
26
23

> <PUBCHEM_MMFF94_PARTIAL_CHARGES>
40
1 -0.33
10 -0.15
11 -0.15
12 -0.15
13 -0.15
14 0.23
15 -0.15
16 -0.15
17 -0.15
18 -0.15
19 -0.15
2 -0.9
20 -0.15
21 0.1
22 -0.15
23 -0.15
24 -0.15
25 -0.15
26 -0.15
3 0.29
32 0.36
37 0.15
38 0.15
39 0.15
40 0.15
43 0.15
44 0.15
45 0.15
46 0.15
47 0.15
48 0.15
49 0.15
5 0.27
50 0.15
51 0.15
52 0.15
53 0.15
6 -0.14
7 -0.14
8 0.27

> <PUBCHEM_EFFECTIVE_ROTOR_COUNT>
10

> <PUBCHEM_PHARMACOPHORE_FEATURES>
5
1 2 cation
1 2 donor
6 21 22 23 24 25 26 rings
6 6 10 12 15 17 19 rings
6 7 11 13 16 18 20 rings

> <PUBCHEM_HEAVY_ATOM_COUNT>
26

> <PUBCHEM_ATOM_DEF_STEREO_COUNT>
0

> <PUBCHEM_ATOM_UDEF_STEREO_COUNT>
0

> <PUBCHEM_BOND_DEF_STEREO_COUNT>
0

> <PUBCHEM_BOND_UDEF_STEREO_COUNT>
0

> <PUBCHEM_ISOTOPIC_ATOM_COUNT>
0

> <PUBCHEM_COMPONENT_COUNT>
1

> <PUBCHEM_CACTVS_TAUTO_COUNT>
1

> <PUBCHEM_CONFORMER_ID>
0001011400000005

> <PUBCHEM_MMFF94_ENERGY>
63.0109

> <PUBCHEM_FEATURE_SELFOVERLAP>
25.373

> <PUBCHEM_SHAPE_FINGERPRINT>
10290309 65 18059297560945834294
10369192 42 16630253575145789015
11135926 11 16200150955116374462
11443803 9 15648159791555859389
12596602 18 18187078430491637530
13073987 5 18334857178321307014
13914758 101 15285349618131379303
15183329 4 16056872529832954408
16990366 60 17826807124944918707
18470217 77 18260544498519304925
22956985 138 17543638986268634475
23081809 10 16732992990187222726
249057 25 17240773890811371158
2747138 104 18263097620131951667
3418910 222 18262251013912432172
3663271 9 17967810527614698330
397830 11 18343022181696792294
44317340 157 17060065809492385686
484985 159 11458715958930696085
5104073 3 18190462666910160378
5109719 28 18342182219569665296

> <PUBCHEM_SHAPE_MULTIPOLES>
533.94
24.37
3.86
1.68
39.79
3.74
0.45
-3.89
9.21
-6.96
-0.47
1.09
-0.09
3.61

> <PUBCHEM_SHAPE_SELFOVERLAP>
1105.146

> <PUBCHEM_SHAPE_VOLUME>
305

> <PUBCHEM_COORDINATE_TYPE>
2
5
10

$$$$
