12198617
  -OEChem-12271619453D

 22 22  0     1  0  0  0  0  0999 V2000
    1.9983   -1.2430   -0.5567 S   0  0  0  0  0  0  0  0  0  0  0  0
   -0.9109   -1.3545   -0.9773 O   0  0  0  0  0  0  0  0  0  0  0  0
   -2.8260   -0.0105    0.3682 N   0  0  0  0  0  0  0  0  0  0  0  0
   -1.5942    0.7069    0.0286 C   0  0  1  0  0  0  0  0  0  0  0  0
   -0.5491   -0.3325   -0.3873 C   0  0  0  0  0  0  0  0  0  0  0  0
   -1.8671    1.6710   -1.1187 C   0  0  0  0  0  0  0  0  0  0  0  0
    0.8715   -0.0762   -0.0838 C   0  0  0  0  0  0  0  0  0  0  0  0
   -2.5908   -0.9466    1.4550 C   0  0  0  0  0  0  0  0  0  0  0  0
    1.3918    1.0003    0.5388 C   0  0  0  0  0  0  0  0  0  0  0  0
    2.8075    0.8789    0.6444 C   0  0  0  0  0  0  0  0  0  0  0  0
    3.2691   -0.2940    0.0889 C   0  0  0  0  0  0  0  0  0  0  0  0
   -1.2657    1.2675    0.9088 H   0  0  0  0  0  0  0  0  0  0  0  0
   -2.2089    1.1431   -2.0166 H   0  0  0  0  0  0  0  0  0  0  0  0
   -0.9568    2.2165   -1.3907 H   0  0  0  0  0  0  0  0  0  0  0  0
   -2.6301    2.4076   -0.8443 H   0  0  0  0  0  0  0  0  0  0  0  0
   -3.5379    0.6629    0.6508 H   0  0  0  0  0  0  0  0  0  0  0  0
   -1.9796   -1.8083    1.1739 H   0  0  0  0  0  0  0  0  0  0  0  0
   -3.5547   -1.3544    1.7790 H   0  0  0  0  0  0  0  0  0  0  0  0
   -2.1422   -0.4564    2.3260 H   0  0  0  0  0  0  0  0  0  0  0  0
    0.8415    1.8541    0.9099 H   0  0  0  0  0  0  0  0  0  0  0  0
    3.4547    1.6152    1.1030 H   0  0  0  0  0  0  0  0  0  0  0  0
    4.2918   -0.6388    0.0307 H   0  0  0  0  0  0  0  0  0  0  0  0
  1  7  1  0  0  0  0
  1 11  1  0  0  0  0
  2  5  2  0  0  0  0
  3  4  1  0  0  0  0
  3  8  1  0  0  0  0
  3 16  1  0  0  0  0
  4  5  1  0  0  0  0
  4  6  1  0  0  0  0
  4 12  1  0  0  0  0
  5  7  1  0  0  0  0
  6 13  1  0  0  0  0
  6 14  1  0  0  0  0
  6 15  1  0  0  0  0
  7  9  2  0  0  0  0
  8 17  1  0  0  0  0
  8 18  1  0  0  0  0
  8 19  1  0  0  0  0
  9 10  1  0  0  0  0
  9 20  1  0  0  0  0
 10 11  2  0  0  0  0
 10 21  1  0  0  0  0
 11 22  1  0  0  0  0
M  END
> <PUBCHEM_COMPOUND_CID>
12198617

> <PUBCHEM_CONFORMER_RMSD>
0.6

> <PUBCHEM_CONFORMER_DIVERSEORDER>
1
25
3
36
24
21
17
31
18
38
5
27
33
20
30
23
10
34
12
37
4
22
19
2
29
14
11
16
26
6
9
32
13
8
15
28
7
35
39

> <PUBCHEM_MMFF94_PARTIAL_CHARGES>
14
1 -0.08
10 -0.15
11 -0.11
16 0.36
2 -0.57
20 0.15
21 0.15
22 0.15
3 -0.9
4 0.33
5 0.59
7 -0.05
8 0.27
9 -0.15

> <PUBCHEM_EFFECTIVE_ROTOR_COUNT>
3

> <PUBCHEM_PHARMACOPHORE_FEATURES>
4
1 2 acceptor
1 3 cation
1 3 donor
5 1 7 9 10 11 rings

> <PUBCHEM_HEAVY_ATOM_COUNT>
11

> <PUBCHEM_ATOM_DEF_STEREO_COUNT>
0

> <PUBCHEM_ATOM_UDEF_STEREO_COUNT>
1

> <PUBCHEM_BOND_DEF_STEREO_COUNT>
0

> <PUBCHEM_BOND_UDEF_STEREO_COUNT>
0

> <PUBCHEM_ISOTOPIC_ATOM_COUNT>
0

> <PUBCHEM_COMPONENT_COUNT>
1

> <PUBCHEM_CACTVS_TAUTO_COUNT>
2

> <PUBCHEM_CONFORMER_ID>
00BA22D900000001

> <PUBCHEM_MMFF94_ENERGY>
16.2137

> <PUBCHEM_FEATURE_SELFOVERLAP>
20.297

> <PUBCHEM_SHAPE_FINGERPRINT>
10857977 72 18114468941329272497
124424 183 18191852453965426626
12932764 1 18341889706115592558
13380535 21 18059585749151041846
13380536 127 17385445423012251756
14128692 85 15213873755901700619
14325111 11 18202281394294656801
15310529 11 18187085040124402852
15775835 57 18059856194255850354
16945 1 17989201517394920860
17844478 74 18335991921032620401
20715346 28 18410291385067473324
23235685 24 17489869336489144512
23402539 116 18113327610327622133
2748010 2 18198905803687973084
3248919 1 17531240647712351446
369184 2 17917705812078965245
5084963 1 18334587806039735701

> <PUBCHEM_SHAPE_MULTIPOLES>
219.37
4.88
1.48
1.11
0.8
0.16
0.08
-0.08
1.05
-0.38
-0.23
-0.48
-0.11
0.99

> <PUBCHEM_SHAPE_SELFOVERLAP>
432.716

> <PUBCHEM_SHAPE_VOLUME>
132.9

> <PUBCHEM_COORDINATE_TYPE>
2
5
10

$$$$
