57493771
  -OEChem-12271619053D

 38 39  0     1  0  0  0  0  0999 V2000
    0.9339   -1.6833    1.8693 O   0  0  0  0  0  0  0  0  0  0  0  0
   -1.1851   -1.4806   -0.1305 N   0  0  0  0  0  0  0  0  0  0  0  0
    0.1814   -1.9267   -0.4096 C   0  0  1  0  0  0  0  0  0  0  0  0
   -1.3813   -0.1131   -0.5831 C   0  0  0  0  0  0  0  0  0  0  0  0
    1.1152   -1.3521    0.6781 C   0  0  0  0  0  0  0  0  0  0  0  0
    0.2331   -3.4490   -0.4021 C   0  0  0  0  0  0  0  0  0  0  0  0
    2.1818   -0.4264    0.3308 C   0  0  0  0  0  0  0  0  0  0  0  0
   -2.7796    0.3731   -0.3088 C   0  0  0  0  0  0  0  0  0  0  0  0
    2.5946    0.5378    1.2503 C   0  0  0  0  0  0  0  0  0  0  0  0
    2.7920   -0.5028   -0.9212 C   0  0  0  0  0  0  0  0  0  0  0  0
    4.2284    1.3489   -0.3339 C   0  0  0  0  0  0  0  0  0  0  0  0
   -3.7819    0.1898   -1.2614 C   0  0  0  0  0  0  0  0  0  0  0  0
   -3.0729    1.0065    0.8989 C   0  0  0  0  0  0  0  0  0  0  0  0
    3.6180    1.4253    0.9180 C   0  0  0  0  0  0  0  0  0  0  0  0
    3.8154    0.3848   -1.2536 C   0  0  0  0  0  0  0  0  0  0  0  0
   -5.0773    0.6399   -1.0065 C   0  0  0  0  0  0  0  0  0  0  0  0
   -4.3683    1.4566    1.1539 C   0  0  0  0  0  0  0  0  0  0  0  0
    5.3228    2.2978   -0.6897 C   0  0  0  0  0  0  0  0  0  0  0  0
   -5.3704    1.2733    0.2011 C   0  0  0  0  0  0  0  0  0  0  0  0
    0.4709   -1.5996   -1.4117 H   0  0  0  0  0  0  0  0  0  0  0  0
   -1.8434   -2.0860   -0.6219 H   0  0  0  0  0  0  0  0  0  0  0  0
   -1.1850   -0.0272   -1.6602 H   0  0  0  0  0  0  0  0  0  0  0  0
   -0.6785    0.5709   -0.0911 H   0  0  0  0  0  0  0  0  0  0  0  0
   -0.0973   -3.8630    0.5576 H   0  0  0  0  0  0  0  0  0  0  0  0
   -0.4004   -3.8715   -1.1897 H   0  0  0  0  0  0  0  0  0  0  0  0
    1.2577   -3.7986   -0.5709 H   0  0  0  0  0  0  0  0  0  0  0  0
    2.1276    0.6169    2.2286 H   0  0  0  0  0  0  0  0  0  0  0  0
    2.5242   -1.2606   -1.6507 H   0  0  0  0  0  0  0  0  0  0  0  0
   -3.5666   -0.3039   -2.2053 H   0  0  0  0  0  0  0  0  0  0  0  0
   -2.3013    1.1537    1.6501 H   0  0  0  0  0  0  0  0  0  0  0  0
    3.9290    2.1740    1.6418 H   0  0  0  0  0  0  0  0  0  0  0  0
    4.2876    0.3118   -2.2297 H   0  0  0  0  0  0  0  0  0  0  0  0
   -5.8578    0.4968   -1.7481 H   0  0  0  0  0  0  0  0  0  0  0  0
   -4.5968    1.9494    2.0943 H   0  0  0  0  0  0  0  0  0  0  0  0
    6.0378    1.8356   -1.3788 H   0  0  0  0  0  0  0  0  0  0  0  0
    5.8860    2.6029    0.1988 H   0  0  0  0  0  0  0  0  0  0  0  0
    4.9054    3.1914   -1.1642 H   0  0  0  0  0  0  0  0  0  0  0  0
   -6.3791    1.6236    0.3997 H   0  0  0  0  0  0  0  0  0  0  0  0
  1  5  2  0  0  0  0
  2  3  1  0  0  0  0
  2  4  1  0  0  0  0
  2 21  1  0  0  0  0
  3  5  1  0  0  0  0
  3  6  1  0  0  0  0
  3 20  1  0  0  0  0
  4  8  1  0  0  0  0
  4 22  1  0  0  0  0
  4 23  1  0  0  0  0
  5  7  1  0  0  0  0
  6 24  1  0  0  0  0
  6 25  1  0  0  0  0
  6 26  1  0  0  0  0
  7  9  2  0  0  0  0
  7 10  1  0  0  0  0
  8 12  2  0  0  0  0
  8 13  1  0  0  0  0
  9 14  1  0  0  0  0
  9 27  1  0  0  0  0
 10 15  2  0  0  0  0
 10 28  1  0  0  0  0
 11 14  2  0  0  0  0
 11 15  1  0  0  0  0
 11 18  1  0  0  0  0
 12 16  1  0  0  0  0
 12 29  1  0  0  0  0
 13 17  2  0  0  0  0
 13 30  1  0  0  0  0
 14 31  1  0  0  0  0
 15 32  1  0  0  0  0
 16 19  2  0  0  0  0
 16 33  1  0  0  0  0
 17 19  1  0  0  0  0
 17 34  1  0  0  0  0
 18 35  1  0  0  0  0
 18 36  1  0  0  0  0
 18 37  1  0  0  0  0
 19 38  1  0  0  0  0
M  END
> <PUBCHEM_COMPOUND_CID>
57493771

> <PUBCHEM_CONFORMER_RMSD>
0.6

> <PUBCHEM_CONFORMER_DIVERSEORDER>
1
199
106
96
61
168
97
181
108
49
127
39
4
143
197
159
95
194
65
160
28
166
155
109
53
98
60
33
129
85
3
170
206
176
122
145
147
149
113
211
205
126
134
82
5
30
154
175
84
135
68
45
70
27
48
76
191
75
63
35
107
142
41
55
138
38
140
121
57
32
100
91
43
114
152
37
146
131
195
210
56
62
130
81
59
88
66
192
167
110
67
124
116
79
141
69
214
31
13
72
125
209
15
178
90
40
86
193
115
137
157
117
14
83
151
50
120
179
173
112
158
198
111
172
20
215
153
132
156
190
128
24
164
54
196
16
187
99
9
51
208
177
150
17
186
144
200
184
11
203
10
212
89
133
58
12
213
103
52
87
136
183
119
22
92
104
29
207
188
148
42
185
123
102
161
201
34
71
44
182
118
80
165
6
174
36
74
78
101
21
202
2
189
163
77
180
64
18
73
105
19
204
162
94
47
25
26
139
46
93
23
7
8
171
169

> <PUBCHEM_MMFF94_PARTIAL_CHARGES>
28
1 -0.57
10 -0.15
11 -0.14
12 -0.15
13 -0.15
14 -0.15
15 -0.15
16 -0.15
17 -0.15
18 0.14
19 -0.15
2 -0.9
21 0.36
27 0.15
28 0.15
29 0.15
3 0.33
30 0.15
31 0.15
32 0.15
33 0.15
34 0.15
38 0.15
4 0.41
5 0.42
7 0.09
8 -0.14
9 -0.15

> <PUBCHEM_EFFECTIVE_ROTOR_COUNT>
5

> <PUBCHEM_PHARMACOPHORE_FEATURES>
5
1 1 acceptor
1 2 cation
1 2 donor
6 7 9 10 11 14 15 rings
6 8 12 13 16 17 19 rings

> <PUBCHEM_HEAVY_ATOM_COUNT>
19

> <PUBCHEM_ATOM_DEF_STEREO_COUNT>
0

> <PUBCHEM_ATOM_UDEF_STEREO_COUNT>
1

> <PUBCHEM_BOND_DEF_STEREO_COUNT>
0

> <PUBCHEM_BOND_UDEF_STEREO_COUNT>
0

> <PUBCHEM_ISOTOPIC_ATOM_COUNT>
0

> <PUBCHEM_COMPONENT_COUNT>
1

> <PUBCHEM_CACTVS_TAUTO_COUNT>
7

> <PUBCHEM_CONFORMER_ID>
036D490B00000001

> <PUBCHEM_MMFF94_ENERGY>
48.102

> <PUBCHEM_FEATURE_SELFOVERLAP>
25.372

> <PUBCHEM_SHAPE_FINGERPRINT>
10498660 4 18342451552151856881
10670039 82 18343025454219642084
10681291 71 18413112770537998697
10753850 27 11887682749300136140
11796584 16 13254793512701747589
12363563 72 9655578534373189628
12390115 104 18337965595944079326
12633257 1 14129060352426859788
12730499 353 18342186552585563915
12788726 201 17903908195334614082
12892183 10 15140948548341938468
13544653 18 9727634999019607782
13583140 156 15430303780739069711
13828863 39 15286787887025611156
13955234 65 18191873323043512171
14178342 30 12541245612235028063
1420 369 8862947177520634828
14251764 38 17690559006874244824
14341114 328 15574723512013860828
14528608 73 18272081683051516109
14774955 27 18334851702169017261
15188451 53 13262685876376147129
15210252 30 18272371988202082096
15342168 16 18410009906201970949
1741750 31 18339920523677011498
17834072 32 18264489658124887404
1798214 20 12751241389236571772
1798214 55 18408884040127443300
1813 80 17481428175259846390
18222031 100 10737286822680380570
18785283 64 18263924341534001962
193927 3 10807941495805719748
204376 136 18335137596524695943
20626108 58 11170209686674334741
20671657 53 12823296822895458898
21250096 35 9295286140420047557
21524375 3 18409440375979318050
21756936 100 16952268731716749332
21857420 4 13894799573191919413
21864079 5 18270680844849795969
2255824 54 17983292634576158455
23402655 69 17917712422313364780
23559900 14 17840577107901855103
2637199 183 18202286883268135870
2838139 119 18272368707015508524
3009799 131 16917353645740785364
314173 85 8142091969766960654
3472631 163 18263645220262290332
351380 3 9871754597984984116
458136 41 18340210678735238967
474 4 18411138030654017869
49207404 50 16878219771090233511
5281201 14 13901893515118812459
59682541 52 17560814186601261908
59755656 520 18335698368998465182
633830 44 18202002092840391295
6442390 28 18410302440335080779
76465 3 9079122141677972796
7808743 9 18264207079330928188
960060 61 13183014137860108329

> <PUBCHEM_SHAPE_MULTIPOLES>
380.16
11.61
2.58
1.36
5.25
1.98
0.22
-10.4
-2.2
-1.41
0.09
-0.11
-0.06
-0.81

> <PUBCHEM_SHAPE_SELFOVERLAP>
799.283

> <PUBCHEM_SHAPE_VOLUME>
215.5

> <PUBCHEM_COORDINATE_TYPE>
2
5
10

$$$$
