91844466
  -OEChem-12271619533D

 42 43  0     1  0  0  0  0  0999 V2000
    2.2622   -0.1422   -0.2907 O   0  0  0  0  0  0  0  0  0  0  0  0
    1.2515   -0.3005    1.7726 O   0  0  0  0  0  0  0  0  0  0  0  0
   -1.9984    1.4750   -0.6985 N   0  0  0  0  0  0  0  0  0  0  0  0
   -0.8238    1.2963    0.1643 C   0  0  2  0  0  0  0  0  0  0  0  0
    0.1149    2.5064    0.0632 C   0  0  0  0  0  0  0  0  0  0  0  0
   -0.0947    0.0171   -0.2431 C   0  0  2  0  0  0  0  0  0  0  0  0
   -0.6192    3.8040    0.3900 C   0  0  0  0  0  0  0  0  0  0  0  0
   -1.8823    3.9316   -0.4544 C   0  0  0  0  0  0  0  0  0  0  0  0
   -2.7495    2.6798   -0.3450 C   0  0  0  0  0  0  0  0  0  0  0  0
   -0.9853   -1.2122   -0.1444 C   0  0  0  0  0  0  0  0  0  0  0  0
    1.1907   -0.1537    0.5587 C   0  0  0  0  0  0  0  0  0  0  0  0
   -0.8511   -2.2472   -1.0698 C   0  0  0  0  0  0  0  0  0  0  0  0
   -1.9364   -1.3043    0.8717 C   0  0  0  0  0  0  0  0  0  0  0  0
   -1.6679   -3.3742   -0.9793 C   0  0  0  0  0  0  0  0  0  0  0  0
   -2.7532   -2.4312    0.9624 C   0  0  0  0  0  0  0  0  0  0  0  0
    3.5417   -0.3190    0.3259 C   0  0  0  0  0  0  0  0  0  0  0  0
   -2.6191   -3.4663    0.0369 C   0  0  0  0  0  0  0  0  0  0  0  0
    4.6155   -0.2813   -0.7506 C   0  0  0  0  0  0  0  0  0  0  0  0
    6.0044   -0.4781   -0.1700 C   0  0  0  0  0  0  0  0  0  0  0  0
   -1.1422    1.2449    1.2130 H   0  0  0  0  0  0  0  0  0  0  0  0
    0.9602    2.4122    0.7542 H   0  0  0  0  0  0  0  0  0  0  0  0
    0.5354    2.5766   -0.9488 H   0  0  0  0  0  0  0  0  0  0  0  0
    0.1888    0.1250   -1.3018 H   0  0  0  0  0  0  0  0  0  0  0  0
    0.0383    4.6625    0.2140 H   0  0  0  0  0  0  0  0  0  0  0  0
   -0.8869    3.8158    1.4537 H   0  0  0  0  0  0  0  0  0  0  0  0
   -2.4549    4.8092   -0.1340 H   0  0  0  0  0  0  0  0  0  0  0  0
   -1.6047    4.0960   -1.5033 H   0  0  0  0  0  0  0  0  0  0  0  0
   -2.6240    0.6747   -0.6353 H   0  0  0  0  0  0  0  0  0  0  0  0
   -3.1566    2.5860    0.6692 H   0  0  0  0  0  0  0  0  0  0  0  0
   -3.6034    2.7761   -1.0244 H   0  0  0  0  0  0  0  0  0  0  0  0
   -0.1124   -2.1889   -1.8648 H   0  0  0  0  0  0  0  0  0  0  0  0
   -2.0578   -0.5424    1.6334 H   0  0  0  0  0  0  0  0  0  0  0  0
   -1.5628   -4.1805   -1.6993 H   0  0  0  0  0  0  0  0  0  0  0  0
   -3.4890   -2.5069    1.7578 H   0  0  0  0  0  0  0  0  0  0  0  0
    3.5616   -1.2845    0.8448 H   0  0  0  0  0  0  0  0  0  0  0  0
    3.7072    0.4855    1.0520 H   0  0  0  0  0  0  0  0  0  0  0  0
   -3.2539   -4.3446    0.1086 H   0  0  0  0  0  0  0  0  0  0  0  0
    4.4122   -1.0556   -1.5000 H   0  0  0  0  0  0  0  0  0  0  0  0
    4.5666    0.6749   -1.2851 H   0  0  0  0  0  0  0  0  0  0  0  0
    6.2419    0.3080    0.5538 H   0  0  0  0  0  0  0  0  0  0  0  0
    6.0851   -1.4461    0.3347 H   0  0  0  0  0  0  0  0  0  0  0  0
    6.7559   -0.4459   -0.9650 H   0  0  0  0  0  0  0  0  0  0  0  0
  1 11  1  0  0  0  0
  1 16  1  0  0  0  0
  2 11  2  0  0  0  0
  3  4  1  0  0  0  0
  3  9  1  0  0  0  0
  3 28  1  0  0  0  0
  4  5  1  0  0  0  0
  4  6  1  0  0  0  0
  4 20  1  0  0  0  0
  5  7  1  0  0  0  0
  5 21  1  0  0  0  0
  5 22  1  0  0  0  0
  6 10  1  0  0  0  0
  6 11  1  0  0  0  0
  6 23  1  0  0  0  0
  7  8  1  0  0  0  0
  7 24  1  0  0  0  0
  7 25  1  0  0  0  0
  8  9  1  0  0  0  0
  8 26  1  0  0  0  0
  8 27  1  0  0  0  0
  9 29  1  0  0  0  0
  9 30  1  0  0  0  0
 10 12  2  0  0  0  0
 10 13  1  0  0  0  0
 12 14  1  0  0  0  0
 12 31  1  0  0  0  0
 13 15  2  0  0  0  0
 13 32  1  0  0  0  0
 14 17  2  0  0  0  0
 14 33  1  0  0  0  0
 15 17  1  0  0  0  0
 15 34  1  0  0  0  0
 16 18  1  0  0  0  0
 16 35  1  0  0  0  0
 16 36  1  0  0  0  0
 17 37  1  0  0  0  0
 18 19  1  0  0  0  0
 18 38  1  0  0  0  0
 18 39  1  0  0  0  0
 19 40  1  0  0  0  0
 19 41  1  0  0  0  0
 19 42  1  0  0  0  0
M  END
> <PUBCHEM_COMPOUND_CID>
91844466

> <PUBCHEM_CONFORMER_RMSD>
0.8

> <PUBCHEM_CONFORMER_DIVERSEORDER>
1
57
207
32
42
158
82
134
187
105
162
157
24
138
89
124
185
17
168
163
152
92
160
135
50
146
197
174
204
93
164
46
33
173
144
61
78
132
155
74
51
59
81
125
188
45
40
161
90
208
68
201
141
165
72
206
196
73
129
14
88
153
189
25
118
86
137
98
195
169
91
126
75
184
143
130
180
85
95
147
109
139
190
26
145
202
7
198
181
131
193
186
120
3
99
30
47
117
111
29
182
41
178
108
179
9
53
15
87
112
113
176
16
44
39
21
80
133
97
58
103
136
31
66
83
23
172
96
123
171
60
200
122
27
65
79
102
62
67
11
56
19
167
63
116
52
107
5
10
142
101
209
55
71
94
43
13
76
36
177
69
183
194
100
150
115
119
28
35
149
4
121
159
8
77
166
156
191
84
18
38
210
140
20
49
148
70
2
114
54
192
12
48
199
175
37
154
6
127
22
64
205
106
170
34
203
104
151
110
128

> <PUBCHEM_MMFF94_PARTIAL_CHARGES>
20
1 -0.43
10 -0.14
11 0.66
12 -0.15
13 -0.15
14 -0.15
15 -0.15
16 0.28
17 -0.15
2 -0.57
28 0.36
3 -0.9
31 0.15
32 0.15
33 0.15
34 0.15
37 0.15
4 0.27
6 0.2
9 0.27

> <PUBCHEM_EFFECTIVE_ROTOR_COUNT>
7.2

> <PUBCHEM_PHARMACOPHORE_FEATURES>
6
1 19 hydrophobe
1 2 acceptor
1 3 cation
1 3 donor
6 10 12 13 14 15 17 rings
6 3 4 5 7 8 9 rings

> <PUBCHEM_HEAVY_ATOM_COUNT>
19

> <PUBCHEM_ATOM_DEF_STEREO_COUNT>
0

> <PUBCHEM_ATOM_UDEF_STEREO_COUNT>
2

> <PUBCHEM_BOND_DEF_STEREO_COUNT>
0

> <PUBCHEM_BOND_UDEF_STEREO_COUNT>
0

> <PUBCHEM_ISOTOPIC_ATOM_COUNT>
0

> <PUBCHEM_COMPONENT_COUNT>
1

> <PUBCHEM_CACTVS_TAUTO_COUNT>
1

> <PUBCHEM_CONFORMER_ID>
05796F7200000001

> <PUBCHEM_MMFF94_ENERGY>
28.2971

> <PUBCHEM_FEATURE_SELFOVERLAP>
30.446

> <PUBCHEM_SHAPE_FINGERPRINT>
10411042 1 18194120943621799086
11056379 131 18338812169217839110
11578080 2 17702093871084776433
11833330 49 18409165553975163292
12173636 292 18194959643692490972
12553582 1 18264762341129762346
12643181 29 17979365158332031502
12714826 92 18201440294244465490
12788726 201 18261104166869454874
13583140 156 17917131842231531834
13955234 65 16969715390778399345
14508225 48 18197766898577999439
15042514 8 18409737252507765802
17539 30 18341040891370259734
1813 80 18053965097175839382
18785283 64 17256538417689104872
20101258 96 18337401555522587208
20600515 1 17915485941152417931
20645476 183 18192425282175057644
21041028 32 18190471651812438251
21339142 126 18411985788426361686
21426921 1 18410014334455638750
21524375 3 17906158560623161440
2255824 54 17041762560745485637
22849341 161 18122365715766650835
23419403 2 17631441427089713489
23557571 272 18342461435230145388
23559900 14 18200027332220194706
23566358 27 17257943017934815375
23598288 3 18262252074488979886
2748010 2 18125419037522790264
3091708 16 9203090986545397993
3759504 43 18265894649079785588
4175511 71 18122068873180566323
4409770 3 18409728430850778799
458136 41 17693100660644233737
6138700 20 16827838787113251582
6992083 37 18126872575105270507
7364860 26 17402894921716554355
81228 2 18196626649322369249
90316 7 18340214088680653210
9981440 41 17905044755328712472

> <PUBCHEM_SHAPE_MULTIPOLES>
374.29
6.87
5.26
1.05
15.86
3.32
0.16
-3.43
-0.59
-7.03
-0.78
-0.12
-0.4
0.47

> <PUBCHEM_SHAPE_SELFOVERLAP>
765.269

> <PUBCHEM_SHAPE_VOLUME>
215.3

> <PUBCHEM_COORDINATE_TYPE>
2
5
10

$$$$
