6423085
  -OEChem-12271619393D

 44 45  0     1  0  0  0  0  0999 V2000
   -0.3055    0.0613   -2.1158 O   0  0  0  0  0  0  0  0  0  0  0  0
   -2.0264    1.1883   -0.0997 N   0  0  0  0  0  0  0  0  0  0  0  0
   -1.2101    0.0040    0.1216 C   0  0  1  0  0  0  0  0  0  0  0  0
   -3.1576    1.2675    0.8241 C   0  0  0  0  0  0  0  0  0  0  0  0
   -1.2791    2.4283    0.1081 C   0  0  0  0  0  0  0  0  0  0  0  0
   -3.6121    2.7129    0.6843 C   0  0  0  0  0  0  0  0  0  0  0  0
   -2.3786    3.4751    0.2103 C   0  0  0  0  0  0  0  0  0  0  0  0
   -2.0707   -1.2549   -0.0693 C   0  0  0  0  0  0  0  0  0  0  0  0
   -1.3157   -2.5786    0.1181 C   0  0  0  0  0  0  0  0  0  0  0  0
   -0.0853    0.0634   -0.9057 C   0  0  0  0  0  0  0  0  0  0  0  0
   -2.2046   -3.8155   -0.0160 C   0  0  0  0  0  0  0  0  0  0  0  0
    1.3232    0.1353   -0.4359 C   0  0  0  0  0  0  0  0  0  0  0  0
   -1.4248   -5.0909    0.2659 C   0  0  0  0  0  0  0  0  0  0  0  0
    1.6550   -0.4541    0.7658 C   0  0  0  0  0  0  0  0  0  0  0  0
    2.2526    0.7878   -1.2186 C   0  0  0  0  0  0  0  0  0  0  0  0
    2.9772   -0.3877    1.2053 C   0  0  0  0  0  0  0  0  0  0  0  0
    3.5748    0.8539   -0.7791 C   0  0  0  0  0  0  0  0  0  0  0  0
    3.9371    0.2661    0.4328 C   0  0  0  0  0  0  0  0  0  0  0  0
    5.3505    0.3375    0.9039 C   0  0  0  0  0  0  0  0  0  0  0  0
   -0.8303    0.0185    1.1469 H   0  0  0  0  0  0  0  0  0  0  0  0
   -2.8577    1.0730    1.8619 H   0  0  0  0  0  0  0  0  0  0  0  0
   -3.9803    0.5965    0.5590 H   0  0  0  0  0  0  0  0  0  0  0  0
   -0.6010    2.6677   -0.7172 H   0  0  0  0  0  0  0  0  0  0  0  0
   -0.7032    2.4086    1.0425 H   0  0  0  0  0  0  0  0  0  0  0  0
   -4.4111    2.8014   -0.0613 H   0  0  0  0  0  0  0  0  0  0  0  0
   -3.9922    3.1073    1.6321 H   0  0  0  0  0  0  0  0  0  0  0  0
   -2.1064    4.2773    0.9036 H   0  0  0  0  0  0  0  0  0  0  0  0
   -2.5771    3.9288   -0.7679 H   0  0  0  0  0  0  0  0  0  0  0  0
   -2.5229   -1.2544   -1.0704 H   0  0  0  0  0  0  0  0  0  0  0  0
   -2.8972   -1.2675    0.6504 H   0  0  0  0  0  0  0  0  0  0  0  0
   -0.8541   -2.5817    1.1131 H   0  0  0  0  0  0  0  0  0  0  0  0
   -0.5013   -2.6470   -0.6126 H   0  0  0  0  0  0  0  0  0  0  0  0
   -3.0451   -3.7476    0.6844 H   0  0  0  0  0  0  0  0  0  0  0  0
   -2.6262   -3.8608   -1.0266 H   0  0  0  0  0  0  0  0  0  0  0  0
   -2.0765   -5.9640    0.1617 H   0  0  0  0  0  0  0  0  0  0  0  0
   -0.5911   -5.2035   -0.4347 H   0  0  0  0  0  0  0  0  0  0  0  0
   -1.0212   -5.0878    1.2835 H   0  0  0  0  0  0  0  0  0  0  0  0
    0.9499   -1.0008    1.3801 H   0  0  0  0  0  0  0  0  0  0  0  0
    1.9842    1.2555   -2.1611 H   0  0  0  0  0  0  0  0  0  0  0  0
    3.2489   -0.8542    2.1487 H   0  0  0  0  0  0  0  0  0  0  0  0
    4.3129    1.3691   -1.3883 H   0  0  0  0  0  0  0  0  0  0  0  0
    5.6146   -0.5459    1.4951 H   0  0  0  0  0  0  0  0  0  0  0  0
    5.4960    1.2296    1.5211 H   0  0  0  0  0  0  0  0  0  0  0  0
    6.0471    0.3776    0.0596 H   0  0  0  0  0  0  0  0  0  0  0  0
  1 10  2  0  0  0  0
  2  3  1  0  0  0  0
  2  4  1  0  0  0  0
  2  5  1  0  0  0  0
  3  8  1  0  0  0  0
  3 10  1  0  0  0  0
  3 20  1  0  0  0  0
  4  6  1  0  0  0  0
  4 21  1  0  0  0  0
  4 22  1  0  0  0  0
  5  7  1  0  0  0  0
  5 23  1  0  0  0  0
  5 24  1  0  0  0  0
  6  7  1  0  0  0  0
  6 25  1  0  0  0  0
  6 26  1  0  0  0  0
  7 27  1  0  0  0  0
  7 28  1  0  0  0  0
  8  9  1  0  0  0  0
  8 29  1  0  0  0  0
  8 30  1  0  0  0  0
  9 11  1  0  0  0  0
  9 31  1  0  0  0  0
  9 32  1  0  0  0  0
 10 12  1  0  0  0  0
 11 13  1  0  0  0  0
 11 33  1  0  0  0  0
 11 34  1  0  0  0  0
 12 14  2  0  0  0  0
 12 15  1  0  0  0  0
 13 35  1  0  0  0  0
 13 36  1  0  0  0  0
 13 37  1  0  0  0  0
 14 16  1  0  0  0  0
 14 38  1  0  0  0  0
 15 17  2  0  0  0  0
 15 39  1  0  0  0  0
 16 18  2  0  0  0  0
 16 40  1  0  0  0  0
 17 18  1  0  0  0  0
 17 41  1  0  0  0  0
 18 19  1  0  0  0  0
 19 42  1  0  0  0  0
 19 43  1  0  0  0  0
 19 44  1  0  0  0  0
M  END
> <PUBCHEM_COMPOUND_CID>
6423085

> <PUBCHEM_CONFORMER_RMSD>
0.8

> <PUBCHEM_CONFORMER_DIVERSEORDER>
1
39
7
28
41
22
17
18
9
16
35
38
42
26
14
29
40
12
33
25
37
20
15
21
32
34
3
31
27
36
8
10
24
19
13
11
4
23
2
6
30
5

> <PUBCHEM_MMFF94_PARTIAL_CHARGES>
17
1 -0.57
10 0.42
12 0.09
14 -0.15
15 -0.15
16 -0.15
17 -0.15
18 -0.14
19 0.14
2 -0.81
3 0.33
38 0.15
39 0.15
4 0.27
40 0.15
41 0.15
5 0.27

> <PUBCHEM_EFFECTIVE_ROTOR_COUNT>
7

> <PUBCHEM_PHARMACOPHORE_FEATURES>
5
1 1 acceptor
1 13 hydrophobe
1 2 cation
5 2 4 5 6 7 rings
6 12 14 15 16 17 18 rings

> <PUBCHEM_HEAVY_ATOM_COUNT>
19

> <PUBCHEM_ATOM_DEF_STEREO_COUNT>
0

> <PUBCHEM_ATOM_UDEF_STEREO_COUNT>
1

> <PUBCHEM_BOND_DEF_STEREO_COUNT>
0

> <PUBCHEM_BOND_UDEF_STEREO_COUNT>
0

> <PUBCHEM_ISOTOPIC_ATOM_COUNT>
0

> <PUBCHEM_COMPONENT_COUNT>
1

> <PUBCHEM_CACTVS_TAUTO_COUNT>
2

> <PUBCHEM_CONFORMER_ID>
0062022D00000001

> <PUBCHEM_MMFF94_ENERGY>
37.7835

> <PUBCHEM_FEATURE_SELFOVERLAP>
25.371

> <PUBCHEM_SHAPE_FINGERPRINT>
11036077 51 18338791226139840490
11056379 131 18339089310324589134
11265709 11 18050289468511734579
11552529 35 18264476442663342578
121448 382 18342164541278858645
12173636 292 18339074891507381653
12251169 10 18187086109587603548
12500047 106 18341045229645859712
12553582 1 17978240674672106395
12788726 201 18118138080166482723
12839892 36 18336268921439243201
12969540 37 16821919622025535822
13004483 165 18124027103194658011
13032168 30 17824534399722694322
13140716 1 18124316274910596475
13538477 17 18335140912144613444
13583140 156 17846489370934213818
136203 1 18339646745239302491
13955234 65 17618798951069115289
14178342 30 18408876357079979178
14844126 61 18335979882234424915
15042514 8 18337961198335762507
15842332 3 17896331366644681348
15906896 17 18343294877470154231
17980427 26 17765424353559414893
19433438 48 17894898642911515632
20510252 161 18271531909799289697
20600515 1 17912669061498504291
20602899 9 17972563720091304087
20681651 13 17751891779752210008
20832881 197 17756985976012151851
212916 134 18197766726679301600
21524375 3 17986386681523116981
21650355 55 18267584796067664939
21731228 192 18268150864014284433
22224240 67 18200883881642881761
23402539 116 18271799155849743319
23419403 2 17254520186876568791
23557571 272 18130793395046978472
23558518 356 18341328894877141231
23559900 14 18128272099009860700
23598288 3 18116168820697539011
25147074 1 17895199969454051756
3091708 16 9055041759003657491
532947 4 17692252932768349414
58807428 26 18267877073034714401
59755656 520 18339636733480475652
633830 44 17770497538986459013
6992083 37 18040718060698443076
7097593 13 18261105228332537824
7364860 26 17474956420185560121
77188 2 17763178442409798203
81228 2 18272374234622217399

> <PUBCHEM_SHAPE_MULTIPOLES>
380.16
7.28
4.86
1.18
9.13
6.3
0.34
-3.07
-2.33
-8.17
-0.74
0.6
-0.17
-0.78

> <PUBCHEM_SHAPE_SELFOVERLAP>
780.3

> <PUBCHEM_SHAPE_VOLUME>
222.1

> <PUBCHEM_COORDINATE_TYPE>
2
5
10

$$$$
