115806
  -OEChem-12271618343D

 26 26  0     1  0  0  0  0  0999 V2000
   -3.8927   -0.0300    0.1796 N   0  0  0  0  0  0  0  0  0  0  0  0
   -1.5475   -0.3734    0.8234 C   0  0  0  0  0  0  0  0  0  0  0  0
   -2.5149   -0.0155   -0.3208 C   0  0  2  0  0  0  0  0  0  0  0  0
   -0.1058   -0.4255    0.4017 C   0  0  0  0  0  0  0  0  0  0  0  0
   -2.2360    1.3635   -0.9189 C   0  0  0  0  0  0  0  0  0  0  0  0
    0.6723    0.7227    0.4745 C   0  0  0  0  0  0  0  0  0  0  0  0
    0.4316   -1.6220   -0.0556 C   0  0  0  0  0  0  0  0  0  0  0  0
    2.0102    0.6737    0.0832 C   0  0  0  0  0  0  0  0  0  0  0  0
    1.7696   -1.6711   -0.4467 C   0  0  0  0  0  0  0  0  0  0  0  0
    2.5588   -0.5232   -0.3774 C   0  0  0  0  0  0  0  0  0  0  0  0
    2.8544    1.9008    0.1571 C   0  0  0  0  0  0  0  0  0  0  0  0
   -1.8264   -1.3457    1.2532 H   0  0  0  0  0  0  0  0  0  0  0  0
   -1.6557    0.3447    1.6484 H   0  0  0  0  0  0  0  0  0  0  0  0
   -2.4308   -0.7642   -1.1181 H   0  0  0  0  0  0  0  0  0  0  0  0
   -1.2772    1.3854   -1.4458 H   0  0  0  0  0  0  0  0  0  0  0  0
   -2.2275    2.1436   -0.1495 H   0  0  0  0  0  0  0  0  0  0  0  0
   -3.0012    1.6315   -1.6570 H   0  0  0  0  0  0  0  0  0  0  0  0
    0.2465    1.6553    0.8362 H   0  0  0  0  0  0  0  0  0  0  0  0
   -0.1749   -2.5213   -0.1159 H   0  0  0  0  0  0  0  0  0  0  0  0
   -4.1167   -0.9578    0.5372 H   0  0  0  0  0  0  0  0  0  0  0  0
   -4.5393    0.1445   -0.5887 H   0  0  0  0  0  0  0  0  0  0  0  0
    2.1964   -2.6028   -0.8064 H   0  0  0  0  0  0  0  0  0  0  0  0
    3.5993   -0.5739   -0.6872 H   0  0  0  0  0  0  0  0  0  0  0  0
    2.5552    2.5343    0.9990 H   0  0  0  0  0  0  0  0  0  0  0  0
    3.9099    1.6483    0.3060 H   0  0  0  0  0  0  0  0  0  0  0  0
    2.7601    2.4777   -0.7682 H   0  0  0  0  0  0  0  0  0  0  0  0
  1  3  1  0  0  0  0
  1 20  1  0  0  0  0
  1 21  1  0  0  0  0
  2  3  1  0  0  0  0
  2  4  1  0  0  0  0
  2 12  1  0  0  0  0
  2 13  1  0  0  0  0
  3  5  1  0  0  0  0
  3 14  1  0  0  0  0
  4  6  1  0  0  0  0
  4  7  2  0  0  0  0
  5 15  1  0  0  0  0
  5 16  1  0  0  0  0
  5 17  1  0  0  0  0
  6  8  2  0  0  0  0
  6 18  1  0  0  0  0
  7  9  1  0  0  0  0
  7 19  1  0  0  0  0
  8 10  1  0  0  0  0
  8 11  1  0  0  0  0
  9 10  2  0  0  0  0
  9 22  1  0  0  0  0
 10 23  1  0  0  0  0
 11 24  1  0  0  0  0
 11 25  1  0  0  0  0
 11 26  1  0  0  0  0
M  END
> <PUBCHEM_COMPOUND_CID>
115806

> <PUBCHEM_CONFORMER_RMSD>
0.4

> <PUBCHEM_CONFORMER_DIVERSEORDER>
3
21
15
10
18
16
14
2
5
20
11
17
7
6
19
22
1
9
13
12
8
4

> <PUBCHEM_MMFF94_PARTIAL_CHARGES>
16
1 -0.99
10 -0.15
11 0.14
18 0.15
19 0.15
2 0.14
20 0.36
21 0.36
22 0.15
23 0.15
3 0.27
4 -0.14
6 -0.15
7 -0.15
8 -0.14
9 -0.15

> <PUBCHEM_EFFECTIVE_ROTOR_COUNT>
2

> <PUBCHEM_PHARMACOPHORE_FEATURES>
3
1 1 cation
1 1 donor
6 4 6 7 8 9 10 rings

> <PUBCHEM_HEAVY_ATOM_COUNT>
11

> <PUBCHEM_ATOM_DEF_STEREO_COUNT>
0

> <PUBCHEM_ATOM_UDEF_STEREO_COUNT>
1

> <PUBCHEM_BOND_DEF_STEREO_COUNT>
0

> <PUBCHEM_BOND_UDEF_STEREO_COUNT>
0

> <PUBCHEM_ISOTOPIC_ATOM_COUNT>
0

> <PUBCHEM_COMPONENT_COUNT>
1

> <PUBCHEM_CACTVS_TAUTO_COUNT>
1

> <PUBCHEM_CONFORMER_ID>
0001C45E00000003

> <PUBCHEM_MMFF94_ENERGY>
17.4839

> <PUBCHEM_FEATURE_SELFOVERLAP>
15.223

> <PUBCHEM_SHAPE_FINGERPRINT>
1 1 18412825793855998398
10608611 8 18334853888170441565
11031198 65 18341618147843925973
12897270 3 18410008814995337021
12932764 1 18114184090592936107
13380535 76 18340203115397726282
13839132 238 17895187753897083853
14325111 11 18411701023414524867
14390081 3 18187642492472342437
15219456 202 18335980895983440293
15775835 57 18201157757941106933
16945 1 18342186518346878594
170605 34 18334291002329955609
17844478 74 18187658981115523065
18186145 218 18343588425409854005
19973954 147 18336826373217677973
20201158 50 18410013195640634147
20645477 70 18271804580304131135
20671657 53 18056489339781861102
21028194 46 18260828206630420380
21040471 1 18197782317826966314
21524375 3 18267016352988001320
21947302 44 18408038498595329168
22802520 49 18191301572633009861
228727 97 17131564919540923017
230 275 17603301540068806877
23402539 116 17896023481708371287
23402655 69 18343015563215369133
2748010 2 18126019388594718054
5084963 1 17967823708083287423

> <PUBCHEM_SHAPE_MULTIPOLES>
221.39
5.04
1.77
0.83
3.08
0.08
0.02
1.4
0.41
-1.23
0.2
0.21
0.05
0.59

> <PUBCHEM_SHAPE_SELFOVERLAP>
446.655

> <PUBCHEM_SHAPE_VOLUME>
130.2

> <PUBCHEM_COORDINATE_TYPE>
2
5
10

$$$$
