53249194
  -OEChem-12271619063D

 28 28  0     1  0  0  0  0  0999 V2000
   -0.9545   -0.5195   -1.8231 O   0  0  0  0  0  0  0  0  0  0  0  0
   -2.5122   -1.2337    0.4906 N   0  0  0  0  0  0  0  0  0  0  0  0
   -1.7749    0.0238    0.3809 C   0  0  2  0  0  0  0  0  0  0  0  0
   -2.7354    1.1411   -0.0521 C   0  0  0  0  0  0  0  0  0  0  0  0
   -0.6871   -0.2096   -0.6629 C   0  0  0  0  0  0  0  0  0  0  0  0
    0.7419   -0.0580   -0.2751 C   0  0  0  0  0  0  0  0  0  0  0  0
   -2.0325    2.4864   -0.1881 C   0  0  0  0  0  0  0  0  0  0  0  0
   -1.7893   -2.1847    1.3210 C   0  0  0  0  0  0  0  0  0  0  0  0
    1.1008    0.8410    0.7292 C   0  0  0  0  0  0  0  0  0  0  0  0
    1.7220   -0.8161   -0.9154 C   0  0  0  0  0  0  0  0  0  0  0  0
    2.4400    0.9816    1.0934 C   0  0  0  0  0  0  0  0  0  0  0  0
    3.0611   -0.6756   -0.5514 C   0  0  0  0  0  0  0  0  0  0  0  0
    3.4201    0.2234    0.4530 C   0  0  0  0  0  0  0  0  0  0  0  0
   -1.3694    0.2898    1.3609 H   0  0  0  0  0  0  0  0  0  0  0  0
   -3.5453    1.2425    0.6813 H   0  0  0  0  0  0  0  0  0  0  0  0
   -3.2039    0.8951   -1.0138 H   0  0  0  0  0  0  0  0  0  0  0  0
   -3.4215   -1.0610    0.9193 H   0  0  0  0  0  0  0  0  0  0  0  0
   -1.5823    2.7923    0.7610 H   0  0  0  0  0  0  0  0  0  0  0  0
   -2.7561    3.2562   -0.4759 H   0  0  0  0  0  0  0  0  0  0  0  0
   -1.2532    2.4628   -0.9555 H   0  0  0  0  0  0  0  0  0  0  0  0
   -0.8234   -2.4607    0.8870 H   0  0  0  0  0  0  0  0  0  0  0  0
   -2.3756   -3.1056    1.4042 H   0  0  0  0  0  0  0  0  0  0  0  0
   -1.6318   -1.8027    2.3352 H   0  0  0  0  0  0  0  0  0  0  0  0
    0.3755    1.4680    1.2354 H   0  0  0  0  0  0  0  0  0  0  0  0
    1.4607   -1.5252   -1.6965 H   0  0  0  0  0  0  0  0  0  0  0  0
    2.7208    1.6856    1.8714 H   0  0  0  0  0  0  0  0  0  0  0  0
    3.8243   -1.2666   -1.0492 H   0  0  0  0  0  0  0  0  0  0  0  0
    4.4630    0.3337    0.7357 H   0  0  0  0  0  0  0  0  0  0  0  0
  1  5  2  0  0  0  0
  2  3  1  0  0  0  0
  2  8  1  0  0  0  0
  2 17  1  0  0  0  0
  3  4  1  0  0  0  0
  3  5  1  0  0  0  0
  3 14  1  0  0  0  0
  4  7  1  0  0  0  0
  4 15  1  0  0  0  0
  4 16  1  0  0  0  0
  5  6  1  0  0  0  0
  6  9  2  0  0  0  0
  6 10  1  0  0  0  0
  7 18  1  0  0  0  0
  7 19  1  0  0  0  0
  7 20  1  0  0  0  0
  8 21  1  0  0  0  0
  8 22  1  0  0  0  0
  8 23  1  0  0  0  0
  9 11  1  0  0  0  0
  9 24  1  0  0  0  0
 10 12  2  0  0  0  0
 10 25  1  0  0  0  0
 11 13  2  0  0  0  0
 11 26  1  0  0  0  0
 12 13  1  0  0  0  0
 12 27  1  0  0  0  0
 13 28  1  0  0  0  0
M  END
> <PUBCHEM_COMPOUND_CID>
53249194

> <PUBCHEM_CONFORMER_RMSD>
0.6

> <PUBCHEM_CONFORMER_DIVERSEORDER>
2
37
8
39
25
35
34
50
48
18
17
7
16
45
14
22
36
28
41
10
43
49
21
4
46
19
42
30
32
47
3
29
33
40
27
26
13
20
1
31
15
23
44
24
11
12
6
38
5
9

> <PUBCHEM_MMFF94_PARTIAL_CHARGES>
17
1 -0.57
10 -0.15
11 -0.15
12 -0.15
13 -0.15
17 0.36
2 -0.9
24 0.15
25 0.15
26 0.15
27 0.15
28 0.15
3 0.33
5 0.42
6 0.09
8 0.27
9 -0.15

> <PUBCHEM_EFFECTIVE_ROTOR_COUNT>
4

> <PUBCHEM_PHARMACOPHORE_FEATURES>
5
1 1 acceptor
1 2 cation
1 2 donor
1 7 hydrophobe
6 6 9 10 11 12 13 rings

> <PUBCHEM_HEAVY_ATOM_COUNT>
13

> <PUBCHEM_ATOM_DEF_STEREO_COUNT>
0

> <PUBCHEM_ATOM_UDEF_STEREO_COUNT>
1

> <PUBCHEM_BOND_DEF_STEREO_COUNT>
0

> <PUBCHEM_BOND_UDEF_STEREO_COUNT>
0

> <PUBCHEM_ISOTOPIC_ATOM_COUNT>
0

> <PUBCHEM_COMPONENT_COUNT>
1

> <PUBCHEM_CACTVS_TAUTO_COUNT>
2

> <PUBCHEM_CONFORMER_ID>
032C84AA00000002

> <PUBCHEM_MMFF94_ENERGY>
27.5246

> <PUBCHEM_FEATURE_SELFOVERLAP>
25.371

> <PUBCHEM_SHAPE_FINGERPRINT>
10608611 8 18272083885879342856
11471102 22 18130795615381533866
124424 183 18200307706962428694
12500047 106 18261392187571087090
12716758 59 18336271128371976995
12932764 1 17775003531142124172
13294875 104 17474084528459879849
15653759 3 18412549811973407424
15775835 57 17274820306756513176
16945 1 18261403221225954565
17844478 74 18342464788987660784
19049666 15 18269283356590476810
20361792 2 15936690479398211703
20653085 51 17774997921804371045
20715346 28 18131073735883018260
21524375 3 17980757143497877941
23402539 116 18410003335144646661
23493267 7 18338242553095119240
25 1 17697600996138630961
2748010 2 17988925548497900412
305870 269 17755295674193627657
3248919 1 18260822717978539038
63268167 104 17203605991171926690
81228 2 18334021618229541177
8809292 202 18340212877689377234

> <PUBCHEM_SHAPE_MULTIPOLES>
256.68
5.06
1.92
1.25
2.05
0.19
-0.16
0.48
0.62
-1.85
0.5
0.04
-0.34
1

> <PUBCHEM_SHAPE_SELFOVERLAP>
519.231

> <PUBCHEM_SHAPE_VOLUME>
150.4

> <PUBCHEM_COORDINATE_TYPE>
2
5
10

$$$$
