4065
  -OEChem-12271619523D

 38 38  0     0  0  0  0  0  0999 V2000
    0.4253    0.2470    0.0026 O   0  0  0  0  0  0  0  0  0  0  0  0
    1.4586    2.3042    0.0047 O   0  0  0  0  0  0  0  0  0  0  0  0
   -3.2674    0.5786   -0.0173 N   0  0  0  0  0  0  0  0  0  0  0  0
   -1.9968   -0.1578    0.0027 C   0  0  0  0  0  0  0  0  0  0  0  0
   -0.8527    0.8722    0.0035 C   0  0  0  0  0  0  0  0  0  0  0  0
   -1.9421   -1.0503   -1.2448 C   0  0  0  0  0  0  0  0  0  0  0  0
   -1.9436   -1.0345    1.2625 C   0  0  0  0  0  0  0  0  0  0  0  0
   -4.3897   -0.3429    0.0026 C   0  0  0  0  0  0  0  0  0  0  0  0
   -5.7079    0.4267   -0.0257 C   0  0  0  0  0  0  0  0  0  0  0  0
   -6.9006   -0.5159    0.0161 C   0  0  0  0  0  0  0  0  0  0  0  0
    1.4992    1.0836    0.0034 C   0  0  0  0  0  0  0  0  0  0  0  0
    2.7670    0.3109    0.0008 C   0  0  0  0  0  0  0  0  0  0  0  0
    3.9652    0.9953    0.0000 C   0  0  0  0  0  0  0  0  0  0  0  0
    2.7077   -1.0676   -0.0007 C   0  0  0  0  0  0  0  0  0  0  0  0
    5.1563    0.2693   -0.0027 C   0  0  0  0  0  0  0  0  0  0  0  0
    3.8986   -1.7936   -0.0033 C   0  0  0  0  0  0  0  0  0  0  0  0
    5.1230   -1.1251   -0.0044 C   0  0  0  0  0  0  0  0  0  0  0  0
   -0.9307    1.5132    0.8921 H   0  0  0  0  0  0  0  0  0  0  0  0
   -0.9278    1.5126   -0.8857 H   0  0  0  0  0  0  0  0  0  0  0  0
   -3.3177    1.1662   -0.8494 H   0  0  0  0  0  0  0  0  0  0  0  0
   -0.9317   -1.4550   -1.3808 H   0  0  0  0  0  0  0  0  0  0  0  0
   -2.1800   -0.4904   -2.1571 H   0  0  0  0  0  0  0  0  0  0  0  0
   -2.5983   -1.9253   -1.1915 H   0  0  0  0  0  0  0  0  0  0  0  0
   -2.1873   -0.4595    2.1637 H   0  0  0  0  0  0  0  0  0  0  0  0
   -2.6023   -1.9082    1.2183 H   0  0  0  0  0  0  0  0  0  0  0  0
   -0.9340   -1.4377    1.4080 H   0  0  0  0  0  0  0  0  0  0  0  0
   -4.4045   -1.0126   -0.8621 H   0  0  0  0  0  0  0  0  0  0  0  0
   -4.4102   -0.9495    0.9126 H   0  0  0  0  0  0  0  0  0  0  0  0
   -5.7637    1.1104    0.8302 H   0  0  0  0  0  0  0  0  0  0  0  0
   -5.7689    1.0390   -0.9338 H   0  0  0  0  0  0  0  0  0  0  0  0
   -6.8973   -1.1931   -0.8441 H   0  0  0  0  0  0  0  0  0  0  0  0
   -6.8936   -1.1195    0.9294 H   0  0  0  0  0  0  0  0  0  0  0  0
   -7.8345    0.0546   -0.0055 H   0  0  0  0  0  0  0  0  0  0  0  0
    4.0093    2.0802    0.0011 H   0  0  0  0  0  0  0  0  0  0  0  0
    1.7781   -1.6278    0.0000 H   0  0  0  0  0  0  0  0  0  0  0  0
    6.1097    0.7895   -0.0035 H   0  0  0  0  0  0  0  0  0  0  0  0
    3.8735   -2.8795   -0.0045 H   0  0  0  0  0  0  0  0  0  0  0  0
    6.0503   -1.6905   -0.0065 H   0  0  0  0  0  0  0  0  0  0  0  0
  1  5  1  0  0  0  0
  1 11  1  0  0  0  0
  2 11  2  0  0  0  0
  3  4  1  0  0  0  0
  3  8  1  0  0  0  0
  3 20  1  0  0  0  0
  4  5  1  0  0  0  0
  4  6  1  0  0  0  0
  4  7  1  0  0  0  0
  5 18  1  0  0  0  0
  5 19  1  0  0  0  0
  6 21  1  0  0  0  0
  6 22  1  0  0  0  0
  6 23  1  0  0  0  0
  7 24  1  0  0  0  0
  7 25  1  0  0  0  0
  7 26  1  0  0  0  0
  8  9  1  0  0  0  0
  8 27  1  0  0  0  0
  8 28  1  0  0  0  0
  9 10  1  0  0  0  0
  9 29  1  0  0  0  0
  9 30  1  0  0  0  0
 10 31  1  0  0  0  0
 10 32  1  0  0  0  0
 10 33  1  0  0  0  0
 11 12  1  0  0  0  0
 12 13  2  0  0  0  0
 12 14  1  0  0  0  0
 13 15  1  0  0  0  0
 13 34  1  0  0  0  0
 14 16  2  0  0  0  0
 14 35  1  0  0  0  0
 15 17  2  0  0  0  0
 15 36  1  0  0  0  0
 16 17  1  0  0  0  0
 16 37  1  0  0  0  0
 17 38  1  0  0  0  0
M  END
> <PUBCHEM_COMPOUND_CID>
4065

> <PUBCHEM_CONFORMER_RMSD>
0.8

> <PUBCHEM_CONFORMER_DIVERSEORDER>
4
68
48
53
41
11
61
64
33
58
50
42
9
56
27
45
60
69
39
57
15
63
47
51
46
18
59
30
14
65
62
13
40
67
8
29
16
49
32
52
35
12
25
6
36
21
3
55
66
44
17
20
2
26
5
24
1
38
22
54
43
31
37
34
70
23
10
19
28
7

> <PUBCHEM_MMFF94_PARTIAL_CHARGES>
19
1 -0.43
11 0.63
12 0.09
13 -0.15
14 -0.15
15 -0.15
16 -0.15
17 -0.15
2 -0.57
20 0.36
3 -0.9
34 0.15
35 0.15
36 0.15
37 0.15
38 0.15
4 0.27
5 0.28
8 0.27

> <PUBCHEM_EFFECTIVE_ROTOR_COUNT>
7

> <PUBCHEM_PHARMACOPHORE_FEATURES>
6
1 10 hydrophobe
1 2 acceptor
1 3 cation
1 3 donor
3 4 6 7 hydrophobe
6 12 13 14 15 16 17 rings

> <PUBCHEM_HEAVY_ATOM_COUNT>
17

> <PUBCHEM_ATOM_DEF_STEREO_COUNT>
0

> <PUBCHEM_ATOM_UDEF_STEREO_COUNT>
0

> <PUBCHEM_BOND_DEF_STEREO_COUNT>
0

> <PUBCHEM_BOND_UDEF_STEREO_COUNT>
0

> <PUBCHEM_ISOTOPIC_ATOM_COUNT>
0

> <PUBCHEM_COMPONENT_COUNT>
1

> <PUBCHEM_CACTVS_TAUTO_COUNT>
1

> <PUBCHEM_CONFORMER_ID>
00000FE100000004

> <PUBCHEM_MMFF94_ENERGY>
34.9992

> <PUBCHEM_FEATURE_SELFOVERLAP>
30.446

> <PUBCHEM_SHAPE_FINGERPRINT>
12107183 9 17551522037208316155
12236239 1 17989488524173477251
12592029 89 18130793330638553367
12815109 37 18342174466510143538
12916748 109 14995998835425277228
13533116 47 14333140628079654420
14115302 16 17604160293099613110
14251764 18 18273218608344836921
14252887 29 18060146405939989182
14386348 63 18113622287390456202
14573314 32 17749384828768781655
15242433 33 18413670227428689054
17834072 33 18342737437832912879
17834072 8 18186798080880682663
17834076 25 15985105210663873839
19141452 34 18411698820276007559
200 152 18202562873634919657
20279233 1 18187090554894235042
20645477 70 18411982417114320390
21267235 1 18341336600464766006
21279426 13 18117272550156993845
21285901 2 17895194346603389774
221357 26 18334008380982469053
2215653 11 18333448742501333487
22224240 67 17346588682756827278
22854114 59 10519984868089840146
23402539 116 17561078103899410621
23536379 177 18343584028017308401
23557571 272 16805318869193446700
23559900 14 18336543936110368433
26918003 58 18333169475127120802
2871803 45 18187647964608895770
300161 21 17917704729984570508
3004659 81 18113338583689650634
33824 294 18408602535819509426
3545911 37 18410856576819665252
4214541 1 18410855417321361861
42788 4 18410292510691776621
465052 167 18342744022049738255
59755656 215 17822004282076125879

> <PUBCHEM_SHAPE_MULTIPOLES>
333.13
14.34
1.56
0.79
13.52
0.18
-0.01
-2.65
0.02
-1.51
0
0.37
-0.21
0.01

> <PUBCHEM_SHAPE_SELFOVERLAP>
670.573

> <PUBCHEM_SHAPE_VOLUME>
196.7

> <PUBCHEM_COORDINATE_TYPE>
2
5
10

$$$$
