82281626
  -OEChem-12271618483D

 29 29  0     1  0  0  0  0  0999 V2000
   -1.5827    1.2123   -1.4582 O   0  0  0  0  0  0  0  0  0  0  0  0
    3.3342    1.1616   -0.1040 O   0  0  0  0  0  0  0  0  0  0  0  0
   -3.3427    0.6667    0.8233 N   0  0  0  0  0  0  0  0  0  0  0  0
   -2.6497   -0.3538    0.0344 C   0  0  2  0  0  0  0  0  0  0  0  0
   -1.4140    0.2948   -0.6269 C   0  0  0  0  0  0  0  0  0  0  0  0
   -0.0713   -0.1612   -0.3040 C   0  0  0  0  0  0  0  0  0  0  0  0
   -3.5915   -0.9043   -1.0286 C   0  0  0  0  0  0  0  0  0  0  0  0
    1.0005    0.7299   -0.3599 C   0  0  0  0  0  0  0  0  0  0  0  0
    0.1449   -1.4900    0.0617 C   0  0  0  0  0  0  0  0  0  0  0  0
    2.2883    0.2925   -0.0501 C   0  0  0  0  0  0  0  0  0  0  0  0
   -2.6767    0.8683    2.0998 C   0  0  0  0  0  0  0  0  0  0  0  0
    1.4326   -1.9275    0.3712 C   0  0  0  0  0  0  0  0  0  0  0  0
    2.5043   -1.0363    0.3156 C   0  0  0  0  0  0  0  0  0  0  0  0
    4.6236    0.6470    0.2257 C   0  0  0  0  0  0  0  0  0  0  0  0
   -2.3748   -1.1878    0.6854 H   0  0  0  0  0  0  0  0  0  0  0  0
   -3.9608   -0.1155   -1.6942 H   0  0  0  0  0  0  0  0  0  0  0  0
   -3.0752   -1.6412   -1.6539 H   0  0  0  0  0  0  0  0  0  0  0  0
   -4.4579   -1.3973   -0.5742 H   0  0  0  0  0  0  0  0  0  0  0  0
   -4.3003    0.3656    1.0046 H   0  0  0  0  0  0  0  0  0  0  0  0
    0.8449    1.7694   -0.6387 H   0  0  0  0  0  0  0  0  0  0  0  0
   -0.6557   -2.2226    0.0822 H   0  0  0  0  0  0  0  0  0  0  0  0
   -1.6555    1.2414    1.9750 H   0  0  0  0  0  0  0  0  0  0  0  0
   -2.6534   -0.0494    2.6970 H   0  0  0  0  0  0  0  0  0  0  0  0
   -3.2239    1.6218    2.6756 H   0  0  0  0  0  0  0  0  0  0  0  0
    1.6016   -2.9643    0.6477 H   0  0  0  0  0  0  0  0  0  0  0  0
    3.4778   -1.4433    0.5669 H   0  0  0  0  0  0  0  0  0  0  0  0
    5.3354    1.4736    0.1307 H   0  0  0  0  0  0  0  0  0  0  0  0
    4.9394   -0.1293   -0.4796 H   0  0  0  0  0  0  0  0  0  0  0  0
    4.6670    0.3058    1.2656 H   0  0  0  0  0  0  0  0  0  0  0  0
  1  5  2  0  0  0  0
  2 10  1  0  0  0  0
  2 14  1  0  0  0  0
  3  4  1  0  0  0  0
  3 11  1  0  0  0  0
  3 19  1  0  0  0  0
  4  5  1  0  0  0  0
  4  7  1  0  0  0  0
  4 15  1  0  0  0  0
  5  6  1  0  0  0  0
  6  8  2  0  0  0  0
  6  9  1  0  0  0  0
  7 16  1  0  0  0  0
  7 17  1  0  0  0  0
  7 18  1  0  0  0  0
  8 10  1  0  0  0  0
  8 20  1  0  0  0  0
  9 12  2  0  0  0  0
  9 21  1  0  0  0  0
 10 13  2  0  0  0  0
 11 22  1  0  0  0  0
 11 23  1  0  0  0  0
 11 24  1  0  0  0  0
 12 13  1  0  0  0  0
 12 25  1  0  0  0  0
 13 26  1  0  0  0  0
 14 27  1  0  0  0  0
 14 28  1  0  0  0  0
 14 29  1  0  0  0  0
M  END
> <PUBCHEM_COMPOUND_CID>
82281626

> <PUBCHEM_CONFORMER_RMSD>
0.6

> <PUBCHEM_CONFORMER_DIVERSEORDER>
2
53
4
93
47
31
59
60
74
17
39
90
49
43
86
11
76
61
65
34
87
71
50
20
80
68
13
32
10
26
30
16
85
62
73
83
40
57
88
8
82
37
19
78
64
52
7
14
84
38
51
45
18
77
21
94
12
5
42
56
27
25
15
81
58
48
46
3
92
89
54
91
41
79
55
63
28
6
36
75
67
9
35
69
44
22
1
70
72
29
24
23
33
66

> <PUBCHEM_MMFF94_PARTIAL_CHARGES>
18
1 -0.57
10 0.08
11 0.27
12 -0.15
13 -0.15
14 0.28
19 0.36
2 -0.36
20 0.15
21 0.15
25 0.15
26 0.15
3 -0.9
4 0.33
5 0.42
6 0.09
8 -0.15
9 -0.15

> <PUBCHEM_EFFECTIVE_ROTOR_COUNT>
4

> <PUBCHEM_PHARMACOPHORE_FEATURES>
5
1 1 acceptor
1 2 acceptor
1 3 cation
1 3 donor
6 6 8 9 10 12 13 rings

> <PUBCHEM_HEAVY_ATOM_COUNT>
14

> <PUBCHEM_ATOM_DEF_STEREO_COUNT>
0

> <PUBCHEM_ATOM_UDEF_STEREO_COUNT>
1

> <PUBCHEM_BOND_DEF_STEREO_COUNT>
0

> <PUBCHEM_BOND_UDEF_STEREO_COUNT>
0

> <PUBCHEM_ISOTOPIC_ATOM_COUNT>
0

> <PUBCHEM_COMPONENT_COUNT>
1

> <PUBCHEM_CACTVS_TAUTO_COUNT>
2

> <PUBCHEM_CONFORMER_ID>
04E7849A00000002

> <PUBCHEM_MMFF94_ENERGY>
43.1591

> <PUBCHEM_FEATURE_SELFOVERLAP>
25.372

> <PUBCHEM_SHAPE_FINGERPRINT>
10219947 1 18040713684210949868
10980938 120 18408600345111628334
11132069 177 18259984907197952342
11471102 22 17968100793703609512
12186901 62 16056887926831884921
12346645 44 18344150288815657786
124424 183 16226037920735093701
12491281 212 18060429009749365274
12932764 1 18261959522538580719
13380535 76 18261949743336150746
13693222 15 18040150703981806267
13764800 53 16200160842093815283
14325111 11 18334286557239205908
15219456 202 18041274353283548884
15309172 13 18334297586530780906
15375358 24 17313098644747425743
15775835 57 18412826888792836983
15852999 172 15213285388611578555
16945 1 17894920636874743846
17844478 74 17822017471092361085
18186145 218 18343023268365397708
19422 9 17989207018847412422
200 152 18270667758200249407
201361 129 18058460819669327410
20279233 1 17095241414998980779
204376 136 18261113036540877236
20645477 70 18116417176970693559
20711983 171 17274829017108289203
21524375 3 18338229479294064086
22094290 60 16630526262640471591
23048698 100 18271810069023980195
23236772 104 18272934925370002771
23402539 116 17561075938544615292
23402655 69 18337656556315558991
23419403 2 15534948897959131046
23493267 7 16343433825278876651
23559900 14 15719387288289561802
2748010 2 17969776376547143918
3248919 1 17631723864286765103
458136 41 18262818297445084786
4990 188 17988651800383516558
5902787 121 15286227080044695841
74978 22 10447633717063179261
77492 1 18060134310726527555
81228 2 17613991215959149666

> <PUBCHEM_SHAPE_MULTIPOLES>
271.39
6.91
1.52
1.23
2.53
0.47
-0.32
-1.61
-0.56
0.27
-0.22
-1.31
-0.4
-0.89

> <PUBCHEM_SHAPE_SELFOVERLAP>
552.732

> <PUBCHEM_SHAPE_VOLUME>
159.5

> <PUBCHEM_COORDINATE_TYPE>
2
5
10

$$$$
