57501499
  -OEChem-12271619193D

 31 31  0     1  0  0  0  0  0999 V2000
    0.6020    0.7489    1.8353 O   0  0  0  0  0  0  0  0  0  0  0  0
    1.8416    2.0604   -0.4080 N   0  0  0  0  0  0  0  0  0  0  0  0
    1.4400    0.6548   -0.4265 C   0  0  1  0  0  0  0  0  0  0  0  0
    2.6622   -0.2290   -0.1311 C   0  0  0  0  0  0  0  0  0  0  0  0
    2.2983   -1.7165   -0.0757 C   0  0  0  0  0  0  0  0  0  0  0  0
    0.3717    0.5035    0.6520 C   0  0  0  0  0  0  0  0  0  0  0  0
   -0.9913    0.0440    0.2699 C   0  0  0  0  0  0  0  0  0  0  0  0
    3.5221   -2.5778    0.1951 C   0  0  0  0  0  0  0  0  0  0  0  0
    0.8746    2.8820   -1.1195 C   0  0  0  0  0  0  0  0  0  0  0  0
   -1.1602   -0.8075   -0.8220 C   0  0  0  0  0  0  0  0  0  0  0  0
   -2.0999    0.4637    1.0049 C   0  0  0  0  0  0  0  0  0  0  0  0
   -2.4377   -1.2392   -1.1788 C   0  0  0  0  0  0  0  0  0  0  0  0
   -3.3773    0.0321    0.6483 C   0  0  0  0  0  0  0  0  0  0  0  0
   -3.5463   -0.8194   -0.4437 C   0  0  0  0  0  0  0  0  0  0  0  0
    1.0728    0.3972   -1.4236 H   0  0  0  0  0  0  0  0  0  0  0  0
    3.1154    0.0593    0.8269 H   0  0  0  0  0  0  0  0  0  0  0  0
    3.4258   -0.0719   -0.9041 H   0  0  0  0  0  0  0  0  0  0  0  0
    1.8558   -2.0261   -1.0289 H   0  0  0  0  0  0  0  0  0  0  0  0
    1.5593   -1.9066    0.7099 H   0  0  0  0  0  0  0  0  0  0  0  0
    2.7474    2.1631   -0.8659 H   0  0  0  0  0  0  0  0  0  0  0  0
    3.9785   -2.3195    1.1560 H   0  0  0  0  0  0  0  0  0  0  0  0
    3.2423   -3.6355    0.2252 H   0  0  0  0  0  0  0  0  0  0  0  0
    4.2748   -2.4480   -0.5891 H   0  0  0  0  0  0  0  0  0  0  0  0
   -0.1110    2.8642   -0.6443 H   0  0  0  0  0  0  0  0  0  0  0  0
    0.7742    2.5785   -2.1669 H   0  0  0  0  0  0  0  0  0  0  0  0
    1.2134    3.9231   -1.1103 H   0  0  0  0  0  0  0  0  0  0  0  0
   -0.3255   -1.1781   -1.4061 H   0  0  0  0  0  0  0  0  0  0  0  0
   -1.9883    1.1306    1.8558 H   0  0  0  0  0  0  0  0  0  0  0  0
   -2.5693   -1.9067   -2.0254 H   0  0  0  0  0  0  0  0  0  0  0  0
   -4.2408    0.3594    1.2200 H   0  0  0  0  0  0  0  0  0  0  0  0
   -4.5409   -1.1563   -0.7208 H   0  0  0  0  0  0  0  0  0  0  0  0
  1  6  2  0  0  0  0
  2  3  1  0  0  0  0
  2  9  1  0  0  0  0
  2 20  1  0  0  0  0
  3  4  1  0  0  0  0
  3  6  1  0  0  0  0
  3 15  1  0  0  0  0
  4  5  1  0  0  0  0
  4 16  1  0  0  0  0
  4 17  1  0  0  0  0
  5  8  1  0  0  0  0
  5 18  1  0  0  0  0
  5 19  1  0  0  0  0
  6  7  1  0  0  0  0
  7 10  2  0  0  0  0
  7 11  1  0  0  0  0
  8 21  1  0  0  0  0
  8 22  1  0  0  0  0
  8 23  1  0  0  0  0
  9 24  1  0  0  0  0
  9 25  1  0  0  0  0
  9 26  1  0  0  0  0
 10 12  1  0  0  0  0
 10 27  1  0  0  0  0
 11 13  2  0  0  0  0
 11 28  1  0  0  0  0
 12 14  2  0  0  0  0
 12 29  1  0  0  0  0
 13 14  1  0  0  0  0
 13 30  1  0  0  0  0
 14 31  1  0  0  0  0
M  END
> <PUBCHEM_COMPOUND_CID>
57501499

> <PUBCHEM_CONFORMER_RMSD>
0.6

> <PUBCHEM_CONFORMER_DIVERSEORDER>
1
23
158
159
105
122
56
156
57
66
68
127
148
73
97
33
111
87
64
62
15
135
152
82
46
124
106
92
118
110
98
153
76
17
99
141
108
52
10
126
80
143
39
116
142
90
109
3
61
45
129
139
78
104
128
123
131
21
146
79
22
37
60
130
83
154
34
51
133
136
84
151
117
149
65
138
95
132
67
119
150
114
24
121
145
157
41
140
31
42
120
69
47
59
12
93
53
25
27
91
134
112
44
77
100
30
94
155
115
40
26
36
125
8
29
137
28
102
38
89
101
88
49
107
63
75
86
81
11
74
96
9
55
54
113
2
58
144
4
43
147
6
48
160
71
85
72
70
35
50
32
19
18
103
5
16
7
20
13
14

> <PUBCHEM_MMFF94_PARTIAL_CHARGES>
17
1 -0.57
10 -0.15
11 -0.15
12 -0.15
13 -0.15
14 -0.15
2 -0.9
20 0.36
27 0.15
28 0.15
29 0.15
3 0.33
30 0.15
31 0.15
6 0.42
7 0.09
9 0.27

> <PUBCHEM_EFFECTIVE_ROTOR_COUNT>
5

> <PUBCHEM_PHARMACOPHORE_FEATURES>
5
1 1 acceptor
1 2 cation
1 2 donor
1 8 hydrophobe
6 7 10 11 12 13 14 rings

> <PUBCHEM_HEAVY_ATOM_COUNT>
14

> <PUBCHEM_ATOM_DEF_STEREO_COUNT>
0

> <PUBCHEM_ATOM_UDEF_STEREO_COUNT>
1

> <PUBCHEM_BOND_DEF_STEREO_COUNT>
0

> <PUBCHEM_BOND_UDEF_STEREO_COUNT>
0

> <PUBCHEM_ISOTOPIC_ATOM_COUNT>
0

> <PUBCHEM_COMPONENT_COUNT>
1

> <PUBCHEM_CACTVS_TAUTO_COUNT>
2

> <PUBCHEM_CONFORMER_ID>
036D673B00000001

> <PUBCHEM_MMFF94_ENERGY>
27.4297

> <PUBCHEM_FEATURE_SELFOVERLAP>
25.371

> <PUBCHEM_SHAPE_FINGERPRINT>
10130415 120 17917997169939149355
11578080 2 18128796583089155000
11769659 78 18272646827142407771
12326174 3 17823682239276906616
12932764 1 17560243677410121875
14817 1 14638536833399669360
15279307 12 18127134305763776543
15375462 189 18131355219370886842
16945 1 18263091053168556204
1813 80 18268164058433659334
18511873 20 18271812259394205395
19422 9 18341900731449830147
19786989 88 17825105062988908149
20339313 130 18334576832392935306
20361792 2 18335699386757936438
20559304 39 17917432072401729699
20645476 183 18198913689400987607
20645477 70 18261664974119478727
20671657 53 18336267847149136910
20711985 344 17754725036190542392
21296965 67 18263082111405277090
2255824 54 18338240482762640078
232386 152 17489868249783459854
23419403 2 17698968883240369952
23463225 33 18201441363343064983
23526113 38 17023484009268495424
23532345 88 18410291440796540301
23552423 10 18270116962740492407
23598291 2 18270699604897530340
6992083 37 18126019164860942545
7364860 26 18340767160404375152
8030462 33 17915741079605862789
81228 2 17826787037065752712

> <PUBCHEM_SHAPE_MULTIPOLES>
277.26
5.6
2.48
1.21
1.02
0.95
-0.2
-3.63
0.06
-2.64
0.82
0.4
0.27
-0.83

> <PUBCHEM_SHAPE_SELFOVERLAP>
557.219

> <PUBCHEM_SHAPE_VOLUME>
163.4

> <PUBCHEM_COORDINATE_TYPE>
2
5
10

$$$$
