71316821
  -OEChem-12271618403D

 25 25  0     1  0  0  0  0  0999 V2000
   -1.1143   -2.2363    0.0167 F   0  0  0  0  0  0  0  0  0  0  0  0
    1.1305   -1.4136   -1.0822 O   0  0  0  0  0  0  0  0  0  0  0  0
    2.8812   -0.0563    0.8393 N   0  0  0  0  0  0  0  0  0  0  0  0
    2.0366    0.6177   -0.1487 C   0  0  2  0  0  0  0  0  0  0  0  0
    0.8733   -0.3263   -0.5228 C   0  0  0  0  0  0  0  0  0  0  0  0
    2.8635    0.9542   -1.3828 C   0  0  0  0  0  0  0  0  0  0  0  0
   -0.5056    0.0449   -0.2459 C   0  0  0  0  0  0  0  0  0  0  0  0
   -1.4575   -0.9401    0.0164 C   0  0  0  0  0  0  0  0  0  0  0  0
   -0.8748    1.3900   -0.2430 C   0  0  0  0  0  0  0  0  0  0  0  0
    2.2898    0.0308    2.1648 C   0  0  0  0  0  0  0  0  0  0  0  0
   -2.7788   -0.5802    0.2816 C   0  0  0  0  0  0  0  0  0  0  0  0
   -2.1960    1.7501    0.0222 C   0  0  0  0  0  0  0  0  0  0  0  0
   -3.1481    0.7650    0.2845 C   0  0  0  0  0  0  0  0  0  0  0  0
    1.6794    1.5630    0.2680 H   0  0  0  0  0  0  0  0  0  0  0  0
    3.3085    0.0588   -1.8321 H   0  0  0  0  0  0  0  0  0  0  0  0
    2.2360    1.4238   -2.1485 H   0  0  0  0  0  0  0  0  0  0  0  0
    3.6743    1.6498   -1.1397 H   0  0  0  0  0  0  0  0  0  0  0  0
    3.7977    0.3909    0.8665 H   0  0  0  0  0  0  0  0  0  0  0  0
   -0.1734    2.1843   -0.4782 H   0  0  0  0  0  0  0  0  0  0  0  0
    1.3216   -0.4767    2.2158 H   0  0  0  0  0  0  0  0  0  0  0  0
    2.1685    1.0696    2.4896 H   0  0  0  0  0  0  0  0  0  0  0  0
    2.9485   -0.4646    2.8854 H   0  0  0  0  0  0  0  0  0  0  0  0
   -3.5198   -1.3474    0.4854 H   0  0  0  0  0  0  0  0  0  0  0  0
   -2.4859    2.7968    0.0162 H   0  0  0  0  0  0  0  0  0  0  0  0
   -4.1773    1.0451    0.4890 H   0  0  0  0  0  0  0  0  0  0  0  0
  1  8  1  0  0  0  0
  2  5  2  0  0  0  0
  3  4  1  0  0  0  0
  3 10  1  0  0  0  0
  3 18  1  0  0  0  0
  4  5  1  0  0  0  0
  4  6  1  0  0  0  0
  4 14  1  0  0  0  0
  5  7  1  0  0  0  0
  6 15  1  0  0  0  0
  6 16  1  0  0  0  0
  6 17  1  0  0  0  0
  7  8  1  0  0  0  0
  7  9  2  0  0  0  0
  8 11  2  0  0  0  0
  9 12  1  0  0  0  0
  9 19  1  0  0  0  0
 10 20  1  0  0  0  0
 10 21  1  0  0  0  0
 10 22  1  0  0  0  0
 11 13  1  0  0  0  0
 11 23  1  0  0  0  0
 12 13  2  0  0  0  0
 12 24  1  0  0  0  0
 13 25  1  0  0  0  0
M  END
> <PUBCHEM_COMPOUND_CID>
71316821

> <PUBCHEM_CONFORMER_RMSD>
0.6

> <PUBCHEM_CONFORMER_DIVERSEORDER>
1
21
22
17
40
41
44
42
20
46
3
34
6
27
5
39
37
14
16
2
31
23
13
19
29
18
43
8
35
28
12
11
33
9
45
36
38
32
15
24
7
26
4
25
30
10
47

> <PUBCHEM_MMFF94_PARTIAL_CHARGES>
17
1 -0.19
10 0.27
11 -0.15
12 -0.15
13 -0.15
18 0.36
19 0.15
2 -0.57
23 0.15
24 0.15
25 0.15
3 -0.9
4 0.33
5 0.42
7 0.09
8 0.19
9 -0.15

> <PUBCHEM_EFFECTIVE_ROTOR_COUNT>
3

> <PUBCHEM_PHARMACOPHORE_FEATURES>
4
1 2 acceptor
1 3 cation
1 3 donor
6 7 8 9 11 12 13 rings

> <PUBCHEM_HEAVY_ATOM_COUNT>
13

> <PUBCHEM_ATOM_DEF_STEREO_COUNT>
0

> <PUBCHEM_ATOM_UDEF_STEREO_COUNT>
1

> <PUBCHEM_BOND_DEF_STEREO_COUNT>
0

> <PUBCHEM_BOND_UDEF_STEREO_COUNT>
0

> <PUBCHEM_ISOTOPIC_ATOM_COUNT>
0

> <PUBCHEM_COMPONENT_COUNT>
1

> <PUBCHEM_CACTVS_TAUTO_COUNT>
2

> <PUBCHEM_CONFORMER_ID>
0440355500000001

> <PUBCHEM_MMFF94_ENERGY>
29.083

> <PUBCHEM_FEATURE_SELFOVERLAP>
20.297

> <PUBCHEM_SHAPE_FINGERPRINT>
10857977 72 18341894116952176953
12251169 10 18333724724056597592
12423570 1 9103448690281779438
12932764 1 17489872617923286637
13538477 17 18115024220302388974
15669948 3 18336549433557419087
15775835 57 17894920623984807476
16945 1 18342459274497585517
17846911 113 18341607093020300657
18186145 218 17060341777862086609
20645464 45 17775276175217739873
20871998 184 18198918083142157055
21028194 46 18130784525485630176
22445834 79 17386277706011699096
230 275 18340204068468859917
23236772 104 17750528444877928980
23402539 116 18341314670256147423
23598294 1 18190749819559251915
25610 171 18343015640049903489
2748010 2 18267315222634911055
3248919 1 18409165485218724525
369184 2 17022620883881990341
5084963 1 18127701430525441165
7364860 26 17840866270305529791
77492 1 17749389286417463160
81228 2 17341801580126680430

> <PUBCHEM_SHAPE_MULTIPOLES>
249.41
4.88
1.65
1.3
0.22
0.22
-0.58
-0.99
-0.73
-0.78
0.28
1.48
0.07
-0.43

> <PUBCHEM_SHAPE_SELFOVERLAP>
512.678

> <PUBCHEM_SHAPE_VOLUME>
144.5

> <PUBCHEM_COORDINATE_TYPE>
2
5
10

$$$$
