214359
  -OEChem-12271619353D

 47 50  0     1  0  0  0  0  0999 V2000
    4.5561   -1.4197   -0.1879 N   0  0  2  0  0  0  0  0  0  0  0  0
    0.6533    0.6534    0.0364 C   0  0  1  0  0  0  0  0  0  0  0  0
    3.0249    0.0910    0.6594 C   0  0  2  0  0  0  0  0  0  0  0  0
    2.0307    1.2051    0.3773 C   0  0  0  0  0  0  0  0  0  0  0  0
    0.0288   -0.1199    1.2208 C   0  0  0  0  0  0  0  0  0  0  0  0
   -1.5097    0.0498    1.1376 C   0  0  1  0  0  0  0  0  0  0  0  0
    4.4192    0.5978    1.0367 C   0  0  0  0  0  0  0  0  0  0  0  0
    3.2754   -0.8086   -0.5452 C   0  0  0  0  0  0  0  0  0  0  0  0
   -0.3978    1.6941   -0.2256 C   0  0  0  0  0  0  0  0  0  0  0  0
   -1.6145    1.3462    0.3768 C   0  0  0  0  0  0  0  0  0  0  0  0
    5.3905   -0.3167    0.2930 C   0  0  0  0  0  0  0  0  0  0  0  0
   -2.2810   -1.0885    0.5037 C   0  0  0  0  0  0  0  0  0  0  0  0
   -0.2920    2.8465   -0.9909 C   0  0  0  0  0  0  0  0  0  0  0  0
   -2.7349    2.1541    0.2412 C   0  0  0  0  0  0  0  0  0  0  0  0
    5.1632   -2.1337   -1.3011 C   0  0  0  0  0  0  0  0  0  0  0  0
   -1.4159    3.6635   -1.1310 C   0  0  0  0  0  0  0  0  0  0  0  0
   -2.6289    3.3206   -0.5177 C   0  0  0  0  0  0  0  0  0  0  0  0
   -3.5888   -1.3553    0.9086 C   0  0  0  0  0  0  0  0  0  0  0  0
   -1.6835   -1.8703   -0.4847 C   0  0  0  0  0  0  0  0  0  0  0  0
   -4.2992   -2.4042    0.3249 C   0  0  0  0  0  0  0  0  0  0  0  0
   -2.3939   -2.9191   -1.0685 C   0  0  0  0  0  0  0  0  0  0  0  0
   -3.7019   -3.1861   -0.6636 C   0  0  0  0  0  0  0  0  0  0  0  0
    0.7064    0.0179   -0.8540 H   0  0  0  0  0  0  0  0  0  0  0  0
    2.6677   -0.5246    1.4963 H   0  0  0  0  0  0  0  0  0  0  0  0
    2.4000    1.8240   -0.4505 H   0  0  0  0  0  0  0  0  0  0  0  0
    1.9693    1.8722    1.2474 H   0  0  0  0  0  0  0  0  0  0  0  0
    0.3604    0.3402    2.1641 H   0  0  0  0  0  0  0  0  0  0  0  0
    0.3548   -1.1649    1.2635 H   0  0  0  0  0  0  0  0  0  0  0  0
   -1.8777    0.1954    2.1623 H   0  0  0  0  0  0  0  0  0  0  0  0
    4.5641    0.5313    2.1210 H   0  0  0  0  0  0  0  0  0  0  0  0
    4.5774    1.6411    0.7415 H   0  0  0  0  0  0  0  0  0  0  0  0
    2.4924   -1.5653   -0.6589 H   0  0  0  0  0  0  0  0  0  0  0  0
    3.3467   -0.2257   -1.4727 H   0  0  0  0  0  0  0  0  0  0  0  0
    5.8472    0.2398   -0.5356 H   0  0  0  0  0  0  0  0  0  0  0  0
    6.1904   -0.6729    0.9498 H   0  0  0  0  0  0  0  0  0  0  0  0
    0.6379    3.1156   -1.4803 H   0  0  0  0  0  0  0  0  0  0  0  0
   -3.6765    1.8921    0.7121 H   0  0  0  0  0  0  0  0  0  0  0  0
    6.1174   -2.5765   -0.9953 H   0  0  0  0  0  0  0  0  0  0  0  0
    5.3466   -1.4848   -2.1650 H   0  0  0  0  0  0  0  0  0  0  0  0
    4.5172   -2.9577   -1.6229 H   0  0  0  0  0  0  0  0  0  0  0  0
   -1.3517    4.5718   -1.7240 H   0  0  0  0  0  0  0  0  0  0  0  0
   -3.4938    3.9673   -0.6374 H   0  0  0  0  0  0  0  0  0  0  0  0
   -4.0662   -0.7536    1.6773 H   0  0  0  0  0  0  0  0  0  0  0  0
   -0.6718   -1.6957   -0.8310 H   0  0  0  0  0  0  0  0  0  0  0  0
   -5.3176   -2.6119    0.6400 H   0  0  0  0  0  0  0  0  0  0  0  0
   -1.9296   -3.5278   -1.8390 H   0  0  0  0  0  0  0  0  0  0  0  0
   -4.2551   -4.0026   -1.1183 H   0  0  0  0  0  0  0  0  0  0  0  0
  1  8  1  0  0  0  0
  1 11  1  0  0  0  0
  1 15  1  0  0  0  0
  2  4  1  0  0  0  0
  2  5  1  0  0  0  0
  2  9  1  0  0  0  0
  2 23  1  0  0  0  0
  3  4  1  0  0  0  0
  3  7  1  0  0  0  0
  3  8  1  0  0  0  0
  3 24  1  0  0  0  0
  4 25  1  0  0  0  0
  4 26  1  0  0  0  0
  5  6  1  0  0  0  0
  5 27  1  0  0  0  0
  5 28  1  0  0  0  0
  6 10  1  0  0  0  0
  6 12  1  0  0  0  0
  6 29  1  0  0  0  0
  7 11  1  0  0  0  0
  7 30  1  0  0  0  0
  7 31  1  0  0  0  0
  8 32  1  0  0  0  0
  8 33  1  0  0  0  0
  9 10  1  0  0  0  0
  9 13  2  0  0  0  0
 10 14  2  0  0  0  0
 11 34  1  0  0  0  0
 11 35  1  0  0  0  0
 12 18  2  0  0  0  0
 12 19  1  0  0  0  0
 13 16  1  0  0  0  0
 13 36  1  0  0  0  0
 14 17  1  0  0  0  0
 14 37  1  0  0  0  0
 15 38  1  0  0  0  0
 15 39  1  0  0  0  0
 15 40  1  0  0  0  0
 16 17  2  0  0  0  0
 16 41  1  0  0  0  0
 17 42  1  0  0  0  0
 18 20  1  0  0  0  0
 18 43  1  0  0  0  0
 19 21  2  0  0  0  0
 19 44  1  0  0  0  0
 20 22  2  0  0  0  0
 20 45  1  0  0  0  0
 21 22  1  0  0  0  0
 21 46  1  0  0  0  0
 22 47  1  0  0  0  0
M  END
> <PUBCHEM_COMPOUND_CID>
214359

> <PUBCHEM_CONFORMER_RMSD>
0.8

> <PUBCHEM_CONFORMER_DIVERSEORDER>
3
28
29
27
25
10
9
5
30
21
7
24
22
26
19
23
1
20
8
18
11
13
17
16
4
15
6
14
2
12

> <PUBCHEM_MMFF94_PARTIAL_CHARGES>
27
1 -0.81
10 -0.14
11 0.27
12 -0.14
13 -0.15
14 -0.15
15 0.27
16 -0.15
17 -0.15
18 -0.15
19 -0.15
2 0.14
20 -0.15
21 -0.15
22 -0.15
36 0.15
37 0.15
41 0.15
42 0.15
43 0.15
44 0.15
45 0.15
46 0.15
47 0.15
6 0.29
8 0.27
9 -0.14

> <PUBCHEM_EFFECTIVE_ROTOR_COUNT>
4.6

> <PUBCHEM_PHARMACOPHORE_FEATURES>
5
1 1 cation
5 1 3 7 8 11 rings
5 2 5 6 9 10 rings
6 12 18 19 20 21 22 rings
6 9 10 13 14 16 17 rings

> <PUBCHEM_HEAVY_ATOM_COUNT>
22

> <PUBCHEM_ATOM_DEF_STEREO_COUNT>
0

> <PUBCHEM_ATOM_UDEF_STEREO_COUNT>
3

> <PUBCHEM_BOND_DEF_STEREO_COUNT>
0

> <PUBCHEM_BOND_UDEF_STEREO_COUNT>
0

> <PUBCHEM_ISOTOPIC_ATOM_COUNT>
0

> <PUBCHEM_COMPONENT_COUNT>
1

> <PUBCHEM_CACTVS_TAUTO_COUNT>
1

> <PUBCHEM_CONFORMER_ID>
0003455700000003

> <PUBCHEM_MMFF94_ENERGY>
64.0802

> <PUBCHEM_FEATURE_SELFOVERLAP>
25.454

> <PUBCHEM_SHAPE_FINGERPRINT>
10254770 206 16892568153464148346
10391435 84 17911797974150962182
107951 10 17534927181140574674
11045515 52 18042958955753590045
11101153 10 18116715304448454636
11265709 11 18263924513205378673
11552529 35 18202845456934745480
116883 192 18337669823005312045
11809386 21 18261108522657506314
12403259 327 16199318761783745403
12422481 6 18199212649411249387
12553582 1 18192160514315140730
12623949 98 17845106232129508646
12643181 29 17981049618482296662
12788726 201 18261103102075891282
13004483 165 18267010829354142391
13009979 54 17912943948069281827
13257819 37 17972032540364477053
13583140 156 17917980686282058616
13690498 29 18338815428992560878
13757389 114 18045796593428583828
13911987 19 17032770711926115564
14508225 48 18262790882426365045
14910302 57 18342454807937455802
15042514 8 18408610240816641689
15131766 46 14781275214090275270
15230672 131 17832152619851059918
16087824 20 18334852768139201333
17357779 13 18270098232398625383
17492 54 17825079577597473101
17539 30 18336252492820460317
1813 80 18264773331771120247
19141452 34 18343590641992767731
20602899 9 18056472846959673441
21065201 7 18336825287123416642
21344244 181 18127672860925176469
22393880 68 18338519613225842170
22620623 9 18336830797112860784
23175994 123 18042966665520845939
23402539 116 18335132141599758163
23419403 2 17559091363238618857
23557571 272 18410008845382225552
23559900 14 18197213651767816320
23598288 3 18042426675935113813
3057174 1 17324339836749970997
3298306 158 17690277110610132222
3729539 64 17332817049973000254
44062 13 18266180526814952606
46194498 28 17465637384930942903
513202 73 18263657194394078763
57262259 84 18335693962498909693
59755656 520 17983582905429470785
613672 6 18191578864159074266
621550 34 18056185015748044992
7164475 11 18336265738383485228
7399639 24 18056178410193851832
7970288 3 18263644141904434138
81228 2 18334291011205194865
84936 182 8717181609738395847
9709674 26 18270674273676271132

> <PUBCHEM_SHAPE_MULTIPOLES>
447.77
9.61
4.38
1.18
13.3
1.66
-0.04
-7.92
-0.2
-5.44
-2.17
0.14
-0.07
0.95

> <PUBCHEM_SHAPE_SELFOVERLAP>
971.798

> <PUBCHEM_SHAPE_VOLUME>
248.6

> <PUBCHEM_COORDINATE_TYPE>
2
5
10

$$$$
