82100444
  -OEChem-12271619003D

 28 28  0     1  0  0  0  0  0999 V2000
   -4.4251   -0.7463    0.4503 F   0  0  0  0  0  0  0  0  0  0  0  0
    1.1690    1.2614   -1.6528 O   0  0  0  0  0  0  0  0  0  0  0  0
    2.9474   -0.2009    0.1635 N   0  0  0  0  0  0  0  0  0  0  0  0
    1.9113    0.7446    0.5834 C   0  0  2  0  0  0  0  0  0  0  0  0
    0.8426    0.8247   -0.5284 C   0  0  0  0  0  0  0  0  0  0  0  0
    2.5348    2.1143    0.8185 C   0  0  0  0  0  0  0  0  0  0  0  0
    2.5124   -1.5705    0.3844 C   0  0  0  0  0  0  0  0  0  0  0  0
   -0.5293    0.4149   -0.2734 C   0  0  0  0  0  0  0  0  0  0  0  0
    3.5795   -2.5620   -0.0471 C   0  0  0  0  0  0  0  0  0  0  0  0
   -1.0687    0.5425    1.0067 C   0  0  0  0  0  0  0  0  0  0  0  0
   -1.3061   -0.1051   -1.3088 C   0  0  0  0  0  0  0  0  0  0  0  0
   -2.3846    0.1501    1.2515 C   0  0  0  0  0  0  0  0  0  0  0  0
   -2.6220   -0.4976   -1.0640 C   0  0  0  0  0  0  0  0  0  0  0  0
   -3.1611   -0.3700    0.2161 C   0  0  0  0  0  0  0  0  0  0  0  0
    1.4871    0.4164    1.5359 H   0  0  0  0  0  0  0  0  0  0  0  0
    3.8011   -0.0367    0.6973 H   0  0  0  0  0  0  0  0  0  0  0  0
    3.0347    2.4943   -0.0800 H   0  0  0  0  0  0  0  0  0  0  0  0
    1.7652    2.8437    1.0948 H   0  0  0  0  0  0  0  0  0  0  0  0
    3.2724    2.0808    1.6278 H   0  0  0  0  0  0  0  0  0  0  0  0
    2.2914   -1.7392    1.4453 H   0  0  0  0  0  0  0  0  0  0  0  0
    1.6015   -1.7875   -0.1845 H   0  0  0  0  0  0  0  0  0  0  0  0
    3.8120   -2.4537   -1.1119 H   0  0  0  0  0  0  0  0  0  0  0  0
    4.5047   -2.4213    0.5219 H   0  0  0  0  0  0  0  0  0  0  0  0
    3.2338   -3.5872    0.1202 H   0  0  0  0  0  0  0  0  0  0  0  0
   -0.5098    0.9756    1.8302 H   0  0  0  0  0  0  0  0  0  0  0  0
   -0.9021   -0.2167   -2.3117 H   0  0  0  0  0  0  0  0  0  0  0  0
   -2.8079    0.2566    2.2460 H   0  0  0  0  0  0  0  0  0  0  0  0
   -3.2269   -0.9035   -1.8695 H   0  0  0  0  0  0  0  0  0  0  0  0
  1 14  1  0  0  0  0
  2  5  2  0  0  0  0
  3  4  1  0  0  0  0
  3  7  1  0  0  0  0
  3 16  1  0  0  0  0
  4  5  1  0  0  0  0
  4  6  1  0  0  0  0
  4 15  1  0  0  0  0
  5  8  1  0  0  0  0
  6 17  1  0  0  0  0
  6 18  1  0  0  0  0
  6 19  1  0  0  0  0
  7  9  1  0  0  0  0
  7 20  1  0  0  0  0
  7 21  1  0  0  0  0
  8 10  2  0  0  0  0
  8 11  1  0  0  0  0
  9 22  1  0  0  0  0
  9 23  1  0  0  0  0
  9 24  1  0  0  0  0
 10 12  1  0  0  0  0
 10 25  1  0  0  0  0
 11 13  2  0  0  0  0
 11 26  1  0  0  0  0
 12 14  2  0  0  0  0
 12 27  1  0  0  0  0
 13 14  1  0  0  0  0
 13 28  1  0  0  0  0
M  END
> <PUBCHEM_COMPOUND_CID>
82100444

> <PUBCHEM_CONFORMER_RMSD>
0.6

> <PUBCHEM_CONFORMER_DIVERSEORDER>
1
39
31
18
33
50
36
40
34
26
8
4
44
14
45
37
23
32
35
29
42
25
13
46
41
43
21
5
19
17
38
48
28
12
9
3
22
49
30
2
10
15
27
16
47
24
7
20
11
6

> <PUBCHEM_MMFF94_PARTIAL_CHARGES>
17
1 -0.19
10 -0.15
11 -0.15
12 -0.15
13 -0.15
14 0.19
16 0.36
2 -0.57
25 0.15
26 0.15
27 0.15
28 0.15
3 -0.9
4 0.33
5 0.42
7 0.27
8 0.09

> <PUBCHEM_EFFECTIVE_ROTOR_COUNT>
4

> <PUBCHEM_PHARMACOPHORE_FEATURES>
4
1 2 acceptor
1 3 cation
1 3 donor
6 8 10 11 12 13 14 rings

> <PUBCHEM_HEAVY_ATOM_COUNT>
14

> <PUBCHEM_ATOM_DEF_STEREO_COUNT>
0

> <PUBCHEM_ATOM_UDEF_STEREO_COUNT>
1

> <PUBCHEM_BOND_DEF_STEREO_COUNT>
0

> <PUBCHEM_BOND_UDEF_STEREO_COUNT>
0

> <PUBCHEM_ISOTOPIC_ATOM_COUNT>
0

> <PUBCHEM_COMPONENT_COUNT>
1

> <PUBCHEM_CACTVS_TAUTO_COUNT>
2

> <PUBCHEM_CONFORMER_ID>
04E4C0DC00000001

> <PUBCHEM_MMFF94_ENERGY>
24.3267

> <PUBCHEM_FEATURE_SELFOVERLAP>
20.297

> <PUBCHEM_SHAPE_FINGERPRINT>
10465860 71 16226055452812961478
12251169 10 17561079211388711920
12932764 1 18272933855506661509
13296908 3 17822002095098787903
13533116 47 18413110576337517107
14252887 29 18040435524664304608
14350558 41 18334579070071039331
15279307 12 17986667280400099110
15375462 189 17989202689483247010
15669948 3 16557899177561818733
16945 1 18339066211563229132
17846911 113 15267344007388423387
19766037 51 17386302999021597566
204376 136 18049715519400308424
20559304 39 17560805433098981864
20645477 70 18265593481535656639
20711985 344 17097763561592565916
20871999 31 16805891667127309678
22445834 79 18201718440183502730
2255824 54 18271245031954082916
230 275 13542467557481343224
23557571 272 16298380254251918972
369184 2 18272929466355864505
4072396 5 17203333274161131147
81228 2 17460294582589721412
90316 7 17203605952401287569

> <PUBCHEM_SHAPE_MULTIPOLES>
269.99
6.38
1.91
1.28
1.64
0.41
-0.3
3.18
1.32
-2.93
0.22
0.48
-0.24
-0.19

> <PUBCHEM_SHAPE_SELFOVERLAP>
548.739

> <PUBCHEM_SHAPE_VOLUME>
157.8

> <PUBCHEM_COORDINATE_TYPE>
2
5
10

$$$$
