135918
  -OEChem-12271620053D

 32 33  0     0  0  0  0  0  0999 V2000
    0.9247   -2.1765    1.3903 O   0  0  0  0  0  0  0  0  0  0  0  0
   -2.7009    1.5836   -1.2029 N   0  0  0  0  0  0  0  0  0  0  0  0
   -0.6889   -1.4673   -0.2844 C   0  0  0  0  0  0  0  0  0  0  0  0
   -1.5842   -0.2275   -0.1444 C   0  0  0  0  0  0  0  0  0  0  0  0
   -0.3042   -1.8423   -1.7328 C   0  0  0  0  0  0  0  0  0  0  0  0
   -1.4886   -2.6733    0.2764 C   0  0  0  0  0  0  0  0  0  0  0  0
    0.6305   -1.3558    0.5190 C   0  0  0  0  0  0  0  0  0  0  0  0
    1.6182   -0.2722    0.2595 C   0  0  0  0  0  0  0  0  0  0  0  0
   -2.0322    0.1370    1.0937 C   0  0  0  0  0  0  0  0  0  0  0  0
   -1.9160    0.4842   -1.2564 C   0  0  0  0  0  0  0  0  0  0  0  0
    1.5032    0.9102    0.9572 C   0  0  0  0  0  0  0  0  0  0  0  0
    2.6127   -0.4905   -0.6689 C   0  0  0  0  0  0  0  0  0  0  0  0
   -2.8423    1.2630    1.1893 C   0  0  0  0  0  0  0  0  0  0  0  0
   -3.1447    1.9454    0.0219 C   0  0  0  0  0  0  0  0  0  0  0  0
    2.4286    1.9252    0.7144 C   0  0  0  0  0  0  0  0  0  0  0  0
    3.5381    0.5246   -0.9116 C   0  0  0  0  0  0  0  0  0  0  0  0
    3.4461    1.7324   -0.2200 C   0  0  0  0  0  0  0  0  0  0  0  0
    0.2426   -1.0399   -2.2403 H   0  0  0  0  0  0  0  0  0  0  0  0
   -1.1878   -2.0800   -2.3373 H   0  0  0  0  0  0  0  0  0  0  0  0
    0.3472   -2.7250   -1.7503 H   0  0  0  0  0  0  0  0  0  0  0  0
   -2.4546   -2.7807   -0.2322 H   0  0  0  0  0  0  0  0  0  0  0  0
   -1.6880   -2.5896    1.3508 H   0  0  0  0  0  0  0  0  0  0  0  0
   -0.9386   -3.6124    0.1360 H   0  0  0  0  0  0  0  0  0  0  0  0
   -1.7703   -0.4039    1.9966 H   0  0  0  0  0  0  0  0  0  0  0  0
   -1.5929    0.2447   -2.2607 H   0  0  0  0  0  0  0  0  0  0  0  0
    0.7234    1.0656    1.6954 H   0  0  0  0  0  0  0  0  0  0  0  0
    2.6941   -1.4303   -1.2064 H   0  0  0  0  0  0  0  0  0  0  0  0
   -3.2217    1.5984    2.1477 H   0  0  0  0  0  0  0  0  0  0  0  0
   -3.7716    2.8308    0.0427 H   0  0  0  0  0  0  0  0  0  0  0  0
    2.3587    2.8645    1.2550 H   0  0  0  0  0  0  0  0  0  0  0  0
    4.3314    0.3739   -1.6381 H   0  0  0  0  0  0  0  0  0  0  0  0
    4.1673    2.5223   -0.4083 H   0  0  0  0  0  0  0  0  0  0  0  0
  1  7  2  0  0  0  0
  2 10  1  0  0  0  0
  2 14  2  0  0  0  0
  3  4  1  0  0  0  0
  3  5  1  0  0  0  0
  3  6  1  0  0  0  0
  3  7  1  0  0  0  0
  4  9  1  0  0  0  0
  4 10  2  0  0  0  0
  5 18  1  0  0  0  0
  5 19  1  0  0  0  0
  5 20  1  0  0  0  0
  6 21  1  0  0  0  0
  6 22  1  0  0  0  0
  6 23  1  0  0  0  0
  7  8  1  0  0  0  0
  8 11  2  0  0  0  0
  8 12  1  0  0  0  0
  9 13  2  0  0  0  0
  9 24  1  0  0  0  0
 10 25  1  0  0  0  0
 11 15  1  0  0  0  0
 11 26  1  0  0  0  0
 12 16  2  0  0  0  0
 12 27  1  0  0  0  0
 13 14  1  0  0  0  0
 13 28  1  0  0  0  0
 14 29  1  0  0  0  0
 15 17  2  0  0  0  0
 15 30  1  0  0  0  0
 16 17  1  0  0  0  0
 16 31  1  0  0  0  0
 17 32  1  0  0  0  0
M  END
> <PUBCHEM_COMPOUND_CID>
135918

> <PUBCHEM_CONFORMER_RMSD>
0.6

> <PUBCHEM_CONFORMER_DIVERSEORDER>
1
29
9
13
23
17
28
10
30
19
24
8
6
18
14
22
20
5
3
15
21
27
4
12
7
25
16
11
26
2

> <PUBCHEM_MMFF94_PARTIAL_CHARGES>
24
1 -0.57
10 0.16
11 -0.15
12 -0.15
13 -0.15
14 0.16
15 -0.15
16 -0.15
17 -0.15
2 -0.62
24 0.15
25 0.15
26 0.15
27 0.15
28 0.15
29 0.15
3 0.2
30 0.15
31 0.15
32 0.15
4 -0.14
7 0.42
8 0.09
9 -0.15

> <PUBCHEM_EFFECTIVE_ROTOR_COUNT>
3

> <PUBCHEM_PHARMACOPHORE_FEATURES>
5
1 1 acceptor
1 2 acceptor
3 3 5 6 hydrophobe
6 2 4 9 10 13 14 rings
6 8 11 12 15 16 17 rings

> <PUBCHEM_HEAVY_ATOM_COUNT>
17

> <PUBCHEM_ATOM_DEF_STEREO_COUNT>
0

> <PUBCHEM_ATOM_UDEF_STEREO_COUNT>
0

> <PUBCHEM_BOND_DEF_STEREO_COUNT>
0

> <PUBCHEM_BOND_UDEF_STEREO_COUNT>
0

> <PUBCHEM_ISOTOPIC_ATOM_COUNT>
0

> <PUBCHEM_COMPONENT_COUNT>
1

> <PUBCHEM_CACTVS_TAUTO_COUNT>
1

> <PUBCHEM_CONFORMER_ID>
000212EE00000001

> <PUBCHEM_MMFF94_ENERGY>
64.679

> <PUBCHEM_FEATURE_SELFOVERLAP>
25.372

> <PUBCHEM_SHAPE_FINGERPRINT>
10165383 225 18189920654547624268
10498660 4 18261385663537377181
12173636 292 17988651830005324897
12202030 40 12102685694197373949
12363563 72 10592038059528307644
12382932 28 12396297041204849221
12808571 1 17775012232656181995
128993 33 18408890645856053980
13134695 92 17540789725610590314
13294875 104 18267284492202015104
13693222 15 11602814739893597444
13693222 7 18411409644206494832
13764800 53 18188490288846202907
14142880 1 18263913513799726861
14386348 128 18336273400446924476
15775835 57 18409450267109308356
16945 1 18338798892893613162
17134986 127 18410288069189385420
17357990 137 18057876944477003755
18186145 218 18341342132245467108
18219364 16 18410019809958997913
18981168 100 18130217259142850362
20510252 161 17975129056727882186
20671657 53 12391508659554986936
21296965 12 18410016554415803527
21524375 3 18411979135389891599
22094290 62 18338513041455796370
22802520 49 18058457663095204960
23175994 123 17394164326671680851
23402539 116 17762325217197353662
23419403 2 17331744106685875682
23557571 272 17907299106547916110
23559900 14 18272377465154808524
238 59 18049413990830961653
25 1 18271536281764610884
2637199 183 18200889369724641105
2748010 2 18058451070235944648
305870 269 18114170943871980138
3060560 45 17986667069777883741
350125 39 18334858320249870962
430814 3 18408043991721448242
5262128 65 15266764598735514185
549884 4 17989198226991458704
6442390 28 18189635954266830411
74978 22 18342172276224541698
81228 2 17902234738478201411

> <PUBCHEM_SHAPE_MULTIPOLES>
339
5.44
2.65
1.39
2.16
0.74
0.17
-3.89
0.63
-0.86
-0.2
-0.35
0.19
0.13

> <PUBCHEM_SHAPE_SELFOVERLAP>
729.581

> <PUBCHEM_SHAPE_VOLUME>
186.8

> <PUBCHEM_COORDINATE_TYPE>
2
5
10

$$$$
