125820
  -OEChem-12311612523D

 31 33  0     1  0  0  0  0  0999 V2000
   -0.1174    4.7734   -0.7067 Br  0  0  0  0  0  0  0  0  0  0  0  0
   -1.1789   -1.3222    2.3614 Cl  0  0  0  0  0  0  0  0  0  0  0  0
    2.1526   -2.9562   -1.7869 O   0  0  0  0  0  0  0  0  0  0  0  0
    3.0100   -2.7290    0.6852 O   0  0  0  0  0  0  0  0  0  0  0  0
    2.5243   -0.5035    0.8443 N   0  0  0  0  0  0  0  0  0  0  0  0
    0.3241   -1.6683   -0.8530 N   0  0  0  0  0  0  0  0  0  0  0  0
    0.6110    0.6943   -0.2031 C   0  0  0  0  0  0  0  0  0  0  0  0
   -0.1767   -0.5488   -0.4566 C   0  0  0  0  0  0  0  0  0  0  0  0
    1.8316    0.6724    0.4898 C   0  0  0  0  0  0  0  0  0  0  0  0
   -1.6469   -0.5278   -0.2068 C   0  0  0  0  0  0  0  0  0  0  0  0
    1.7477   -1.7603   -1.1242 C   0  0  1  0  0  0  0  0  0  0  0  0
    0.0458    1.9254   -0.5746 C   0  0  0  0  0  0  0  0  0  0  0  0
    2.4556   -1.7316    0.2195 C   0  0  0  0  0  0  0  0  0  0  0  0
    2.4110    1.8853    0.8913 C   0  0  0  0  0  0  0  0  0  0  0  0
    0.6596    3.1234   -0.2111 C   0  0  0  0  0  0  0  0  0  0  0  0
    1.8321    3.1037    0.5364 C   0  0  0  0  0  0  0  0  0  0  0  0
   -2.1818   -0.8609    1.0332 C   0  0  0  0  0  0  0  0  0  0  0  0
   -2.4782   -0.1602   -1.2600 C   0  0  0  0  0  0  0  0  0  0  0  0
   -3.5634   -0.8258    1.2222 C   0  0  0  0  0  0  0  0  0  0  0  0
   -3.8598   -0.1252   -1.0707 C   0  0  0  0  0  0  0  0  0  0  0  0
   -4.4024   -0.4581    0.1703 C   0  0  0  0  0  0  0  0  0  0  0  0
    2.0900   -0.9344   -1.7586 H   0  0  0  0  0  0  0  0  0  0  0  0
    3.1955   -0.4217    1.6039 H   0  0  0  0  0  0  0  0  0  0  0  0
   -0.8805    1.9692   -1.1385 H   0  0  0  0  0  0  0  0  0  0  0  0
    3.3400    1.8936    1.4576 H   0  0  0  0  0  0  0  0  0  0  0  0
    2.3160    4.0274    0.8433 H   0  0  0  0  0  0  0  0  0  0  0  0
   -2.0704    0.0919   -2.2354 H   0  0  0  0  0  0  0  0  0  0  0  0
   -4.0024   -1.0824    2.1831 H   0  0  0  0  0  0  0  0  0  0  0  0
   -4.5131    0.1590   -1.8904 H   0  0  0  0  0  0  0  0  0  0  0  0
   -5.4781   -0.4313    0.3173 H   0  0  0  0  0  0  0  0  0  0  0  0
    3.1024   -2.8756   -1.9808 H   0  0  0  0  0  0  0  0  0  0  0  0
  1 15  1  0  0  0  0
  2 17  1  0  0  0  0
  3 11  1  0  0  0  0
  3 31  1  0  0  0  0
  4 13  2  0  0  0  0
  5  9  1  0  0  0  0
  5 13  1  0  0  0  0
  5 23  1  0  0  0  0
  6  8  2  0  0  0  0
  6 11  1  0  0  0  0
  7  8  1  0  0  0  0
  7  9  2  0  0  0  0
  7 12  1  0  0  0  0
  8 10  1  0  0  0  0
  9 14  1  0  0  0  0
 10 17  1  0  0  0  0
 10 18  2  0  0  0  0
 11 13  1  0  0  0  0
 11 22  1  0  0  0  0
 12 15  2  0  0  0  0
 12 24  1  0  0  0  0
 14 16  2  0  0  0  0
 14 25  1  0  0  0  0
 15 16  1  0  0  0  0
 16 26  1  0  0  0  0
 17 19  2  0  0  0  0
 18 20  1  0  0  0  0
 18 27  1  0  0  0  0
 19 21  1  0  0  0  0
 19 28  1  0  0  0  0
 20 21  2  0  0  0  0
 20 29  1  0  0  0  0
 21 30  1  0  0  0  0
M  END
> <PUBCHEM_COMPOUND_CID>
125820

> <PUBCHEM_CONFORMER_RMSD>
0.6

> <PUBCHEM_CONFORMER_DIVERSEORDER>
1
8
4
5
6
7
2
3

> <PUBCHEM_MMFF94_PARTIAL_CHARGES>
30
1 -0.11
10 0.09
11 0.59
12 -0.15
13 0.57
14 -0.15
15 0.11
16 -0.15
17 0.18
18 -0.15
19 -0.15
2 -0.18
20 -0.15
21 -0.15
23 0.37
24 0.15
25 0.15
26 0.15
27 0.15
28 0.15
29 0.15
3 -0.68
30 0.15
31 0.4
4 -0.57
5 -0.55
6 -0.7
7 0.09
8 0.28
9 0.12

> <PUBCHEM_EFFECTIVE_ROTOR_COUNT>
1.4

> <PUBCHEM_PHARMACOPHORE_FEATURES>
9
1 1 hydrophobe
1 3 acceptor
1 3 donor
1 4 acceptor
1 5 donor
1 6 acceptor
6 10 17 18 19 20 21 rings
6 7 9 12 14 15 16 rings
7 5 6 7 8 9 11 13 rings

> <PUBCHEM_HEAVY_ATOM_COUNT>
21

> <PUBCHEM_ATOM_DEF_STEREO_COUNT>
0

> <PUBCHEM_ATOM_UDEF_STEREO_COUNT>
1

> <PUBCHEM_BOND_DEF_STEREO_COUNT>
0

> <PUBCHEM_BOND_UDEF_STEREO_COUNT>
0

> <PUBCHEM_ISOTOPIC_ATOM_COUNT>
0

> <PUBCHEM_COMPONENT_COUNT>
1

> <PUBCHEM_CACTVS_TAUTO_COUNT>
3

> <PUBCHEM_CONFORMER_ID>
0001EB7C00000001

> <PUBCHEM_MMFF94_ENERGY>
76.8805

> <PUBCHEM_FEATURE_SELFOVERLAP>
45.72

> <PUBCHEM_SHAPE_FINGERPRINT>
108634 29 17691952778936209629
1100329 8 14803485782541610907
11582403 64 16238918785580936317
11640471 11 17630897199225756641
116883 192 18124309411320963389
11725454 13 17029322471936193223
12293681 4 18048867508098313045
12363563 72 18265617580608067298
12403259 327 17242427624934951617
12633257 1 17606105432470267937
12788726 201 17902809469706023014
13052359 8 17399228651617330780
13134695 92 18408595950932648039
13140716 1 17979067511636905680
13681431 1 18339380607363790076
14790565 3 18193279817564719332
14866123 147 17253982053376435811
15309172 13 17979073017816640405
15420108 30 17986373685025587856
16945 1 18264193884726904797
17357779 13 18127121983555170014
1813 80 17773058370366076342
19049666 15 18113609080476673697
20600515 1 17749379343668601204
20739085 24 18411707607541997584
21524375 3 17620478342662118165
21731228 192 17689722277838932064
22182313 1 17914032228568386338
23419403 2 17899381295788315628
23526113 38 18115291337493488537
23558518 356 17975118856465975236
23559900 14 17675925395475095527
2748010 2 17912911791485339630
3060560 45 18200032979342553620
31174 14 18189908667789591371
350125 39 17473263648508646880
3729539 64 17902267660204606708
404807 78 17175194392269568525
4409770 3 16831245108141697870
474 4 18196369453912184521
576247 118 18122654697997846346
5845 1 8494688783253562806
7364860 26 18341898549010234341
81228 2 17833277423770075532

> <PUBCHEM_SHAPE_MULTIPOLES>
418.28
5.54
4.51
1.54
6.1
2.92
-0.3
0.55
-0.91
-5.36
1.32
0.58
-0.83
0.82

> <PUBCHEM_SHAPE_SELFOVERLAP>
895.4

> <PUBCHEM_SHAPE_VOLUME>
236.6

> <PUBCHEM_COORDINATE_TYPE>
2
5
10

$$$$


37632
  -OEChem-12311612533D

 43 46  0     0  0  0  0  0  0999 V2000
    1.2937   -4.4320    1.0959 Cl  0  0  0  0  0  0  0  0  0  0  0  0
   -1.4142    0.7674    0.1892 N   0  0  0  0  0  0  0  0  0  0  0  0
   -4.4188   -0.5750   -0.6161 N   0  0  0  0  0  0  0  0  0  0  0  0
    1.3018    1.8747    1.0349 N   0  0  0  0  0  0  0  0  0  0  0  0
   -2.9222    2.2778   -0.3549 N   0  0  0  0  0  0  0  0  0  0  0  0
   -1.9680    2.8873    0.4228 N   0  0  0  0  0  0  0  0  0  0  0  0
   -0.7182   -0.4535    0.3304 C   0  0  0  0  0  0  0  0  0  0  0  0
   -2.5950    1.0104   -0.4633 C   0  0  0  0  0  0  0  0  0  0  0  0
   -1.0857    1.9731    0.7668 C   0  0  0  0  0  0  0  0  0  0  0  0
    0.6588   -0.4939    0.6254 C   0  0  0  0  0  0  0  0  0  0  0  0
   -3.3294    0.0656   -1.3306 C   0  0  0  0  0  0  0  0  0  0  0  0
    0.0430    2.1253    1.7102 C   0  0  0  0  0  0  0  0  0  0  0  0
    1.5622    0.7039    0.5602 C   0  0  0  0  0  0  0  0  0  0  0  0
   -1.4386   -1.6527    0.2070 C   0  0  0  0  0  0  0  0  0  0  0  0
    1.2644   -1.7372    0.8794 C   0  0  0  0  0  0  0  0  0  0  0  0
    2.8739    0.5583   -0.1387 C   0  0  0  0  0  0  0  0  0  0  0  0
   -0.8134   -2.8784    0.4377 C   0  0  0  0  0  0  0  0  0  0  0  0
    0.5310   -2.9199    0.7894 C   0  0  0  0  0  0  0  0  0  0  0  0
   -5.1375   -1.5088   -1.4886 C   0  0  0  0  0  0  0  0  0  0  0  0
   -5.3469    0.4232   -0.0759 C   0  0  0  0  0  0  0  0  0  0  0  0
    2.9931   -0.3419   -1.1886 C   0  0  0  0  0  0  0  0  0  0  0  0
    3.9558    1.3258    0.2706 C   0  0  0  0  0  0  0  0  0  0  0  0
    4.2180   -0.4778   -1.8417 C   0  0  0  0  0  0  0  0  0  0  0  0
    5.1807    1.1900   -0.3826 C   0  0  0  0  0  0  0  0  0  0  0  0
    5.3118    0.2882   -1.4388 C   0  0  0  0  0  0  0  0  0  0  0  0
   -3.7328    0.6405   -2.1782 H   0  0  0  0  0  0  0  0  0  0  0  0
   -2.6569   -0.6569   -1.8064 H   0  0  0  0  0  0  0  0  0  0  0  0
    0.0560    3.1518    2.0935 H   0  0  0  0  0  0  0  0  0  0  0  0
   -0.0771    1.4752    2.5852 H   0  0  0  0  0  0  0  0  0  0  0  0
   -2.5031   -1.7191    0.0769 H   0  0  0  0  0  0  0  0  0  0  0  0
    2.3168   -1.7928    1.1518 H   0  0  0  0  0  0  0  0  0  0  0  0
   -1.3995   -3.7922    0.3754 H   0  0  0  0  0  0  0  0  0  0  0  0
   -4.4569   -2.2776   -1.8714 H   0  0  0  0  0  0  0  0  0  0  0  0
   -5.6023   -1.0023   -2.3423 H   0  0  0  0  0  0  0  0  0  0  0  0
   -5.9195   -2.0342   -0.9293 H   0  0  0  0  0  0  0  0  0  0  0  0
   -6.2200   -0.0729    0.3658 H   0  0  0  0  0  0  0  0  0  0  0  0
   -5.7126    1.1151   -0.8436 H   0  0  0  0  0  0  0  0  0  0  0  0
   -4.9028    0.9957    0.7448 H   0  0  0  0  0  0  0  0  0  0  0  0
    2.1548   -0.9235   -1.5602 H   0  0  0  0  0  0  0  0  0  0  0  0
    3.8811    2.0274    1.0966 H   0  0  0  0  0  0  0  0  0  0  0  0
    4.3179   -1.1726   -2.6705 H   0  0  0  0  0  0  0  0  0  0  0  0
    6.0331    1.7850   -0.0680 H   0  0  0  0  0  0  0  0  0  0  0  0
    6.2651    0.1839   -1.9486 H   0  0  0  0  0  0  0  0  0  0  0  0
  1 18  1  0  0  0  0
  2  7  1  0  0  0  0
  2  8  1  0  0  0  0
  2  9  1  0  0  0  0
  3 11  1  0  0  0  0
  3 19  1  0  0  0  0
  3 20  1  0  0  0  0
  4 12  1  0  0  0  0
  4 13  2  0  0  0  0
  5  6  1  0  0  0  0
  5  8  2  0  0  0  0
  6  9  2  0  0  0  0
  7 10  2  0  0  0  0
  7 14  1  0  0  0  0
  8 11  1  0  0  0  0
  9 12  1  0  0  0  0
 10 13  1  0  0  0  0
 10 15  1  0  0  0  0
 11 26  1  0  0  0  0
 11 27  1  0  0  0  0
 12 28  1  0  0  0  0
 12 29  1  0  0  0  0
 13 16  1  0  0  0  0
 14 17  2  0  0  0  0
 14 30  1  0  0  0  0
 15 18  2  0  0  0  0
 15 31  1  0  0  0  0
 16 21  2  0  0  0  0
 16 22  1  0  0  0  0
 17 18  1  0  0  0  0
 17 32  1  0  0  0  0
 19 33  1  0  0  0  0
 19 34  1  0  0  0  0
 19 35  1  0  0  0  0
 20 36  1  0  0  0  0
 20 37  1  0  0  0  0
 20 38  1  0  0  0  0
 21 23  1  0  0  0  0
 21 39  1  0  0  0  0
 22 24  2  0  0  0  0
 22 40  1  0  0  0  0
 23 25  2  0  0  0  0
 23 41  1  0  0  0  0
 24 25  1  0  0  0  0
 24 42  1  0  0  0  0
 25 43  1  0  0  0  0
M  END
> <PUBCHEM_COMPOUND_CID>
37632

> <PUBCHEM_CONFORMER_RMSD>
0.6

> <PUBCHEM_CONFORMER_DIVERSEORDER>
1
10
6
3
9
4
5
2
8
7

> <PUBCHEM_MMFF94_PARTIAL_CHARGES>
33
1 -0.18
10 0.09
11 0.45
12 0.43
13 0.28
14 -0.15
15 -0.15
16 0.09
17 -0.15
18 0.18
19 0.27
2 0.33
20 0.27
21 -0.15
22 -0.15
23 -0.15
24 -0.15
25 -0.15
3 -0.81
30 0.15
31 0.15
32 0.15
39 0.15
4 -0.7
40 0.15
41 0.15
42 0.15
43 0.15
5 -0.34
6 -0.34
7 -0.02
8 0.01
9 0.01

> <PUBCHEM_EFFECTIVE_ROTOR_COUNT>
3.2

> <PUBCHEM_PHARMACOPHORE_FEATURES>
8
1 3 cation
1 4 acceptor
3 2 5 8 cation
3 2 6 9 cation
5 2 5 6 8 9 rings
6 16 21 22 23 24 25 rings
6 7 10 14 15 17 18 rings
7 2 4 7 9 10 12 13 rings

> <PUBCHEM_HEAVY_ATOM_COUNT>
25

> <PUBCHEM_ATOM_DEF_STEREO_COUNT>
0

> <PUBCHEM_ATOM_UDEF_STEREO_COUNT>
0

> <PUBCHEM_BOND_DEF_STEREO_COUNT>
0

> <PUBCHEM_BOND_UDEF_STEREO_COUNT>
0

> <PUBCHEM_ISOTOPIC_ATOM_COUNT>
0

> <PUBCHEM_COMPONENT_COUNT>
1

> <PUBCHEM_CACTVS_TAUTO_COUNT>
1

> <PUBCHEM_CONFORMER_ID>
0000930000000001

> <PUBCHEM_MMFF94_ENERGY>
96.7028

> <PUBCHEM_FEATURE_SELFOVERLAP>
43.171

> <PUBCHEM_SHAPE_FINGERPRINT>
10190108 129 18265638562409103665
10693767 8 18059843000528554111
10759866 29 18264485079694530919
108634 29 18341334508646829310
10906281 52 18056764453986041528
11796584 16 14836128788221830101
12035759 4 18053389799222791562
121448 382 18412267229101038112
12553582 1 18270947000131485023
12788726 201 18344148085629544480
13009979 54 17694212279721507474
13140716 1 18123731300580971203
133893 2 17533495630049499514
13540713 5 18123743159085940841
14114211 68 18188228519174691543
14787075 74 18343018938616720829
14790565 3 18410300245997228297
14931854 50 18411985732686258950
15163728 17 16806154437880097309
15463212 79 17895195567012255376
15475509 35 14188998047203590303
16752209 62 18410012139495307186
173720 79 17895179044019847266
17492 54 18187353364227946303
17909252 39 17560804269474568422
1813 80 12463568465812354354
19319366 153 18334846208859223767
19591789 44 18193271021608074299
19784866 140 18273214175316121373
20642791 178 17975973163772503114
20775438 99 17338406301210505407
21344244 181 18059586801128535654
221357 26 18202562895278762701
22182313 1 17979916338855405051
22393880 68 18267305318293010340
22907989 373 18052575250291068260
23366157 5 17825662249054390779
23557571 272 18048601714152558372
23559900 14 18341899653924904128
23566358 27 18121219771168153627
25147074 1 18195808458020832923
2748010 2 17907007731544669539
2838139 119 16515396378589984748
2871803 45 18342170068448178589
3759504 43 17749674094268021722
404807 78 17460313494058959619
4409770 3 18116445923429535442
469060 322 17824571731346095459
484989 97 17972883841521691267
513202 73 10878900648032240724
56616090 284 18202007629084825596
59755656 520 18187361065073062590
9709674 26 18130521773031089812
9981440 41 18333448733800727338

> <PUBCHEM_SHAPE_MULTIPOLES>
491.45
9.66
3.71
1.44
0.51
3.64
-0.3
-2.52
-6.31
0.28
1.94
-0.49
0.07
-0.62

> <PUBCHEM_SHAPE_SELFOVERLAP>
1073.301

> <PUBCHEM_SHAPE_VOLUME>
269

> <PUBCHEM_COORDINATE_TYPE>
2
5
10

$$$$

12317881
  -OEChem-12311612533D

 37 40  0     0  0  0  0  0  0999 V2000
   -0.3383   -2.3537   -2.0266 Cl  0  0  0  0  0  0  0  0  0  0  0  0
   -1.5080    4.8084   -0.3017 O   0  5  0  0  0  0  0  0  0  0  0  0
   -2.8780    3.3161    0.5552 O   0  0  0  0  0  0  0  0  0  0  0  0
    2.4133   -0.1377    0.0628 N   0  0  0  0  0  0  0  0  0  0  0  0
    0.3139   -1.8711    1.4435 N   0  0  0  0  0  0  0  0  0  0  0  0
    3.7074   -1.8083    0.6869 N   0  0  0  0  0  0  0  0  0  0  0  0
    4.3498   -1.1180   -0.3119 N   0  0  0  0  0  0  0  0  0  0  0  0
   -1.7541    3.6494    0.1094 N   0  3  0  0  0  0  0  0  0  0  0  0
    1.3255    0.7620    0.0149 C   0  0  0  0  0  0  0  0  0  0  0  0
    0.0381    0.3952    0.4539 C   0  0  0  0  0  0  0  0  0  0  0  0
    2.5640   -1.2009    0.9243 C   0  0  0  0  0  0  0  0  0  0  0  0
   -0.3692   -1.0177    0.7586 C   0  0  0  0  0  0  0  0  0  0  0  0
    1.5980   -1.4966    2.0043 C   0  0  0  0  0  0  0  0  0  0  0  0
    3.5807   -0.1101   -0.6552 C   0  0  0  0  0  0  0  0  0  0  0  0
    1.5561    2.0665   -0.4513 C   0  0  0  0  0  0  0  0  0  0  0  0
   -0.9701    1.3742    0.4997 C   0  0  0  0  0  0  0  0  0  0  0  0
   -1.6650   -1.5114    0.2041 C   0  0  0  0  0  0  0  0  0  0  0  0
   -0.7205    2.6764    0.0679 C   0  0  0  0  0  0  0  0  0  0  0  0
    0.5352    3.0171   -0.4219 C   0  0  0  0  0  0  0  0  0  0  0  0
    3.8940    0.7860   -1.7879 C   0  0  0  0  0  0  0  0  0  0  0  0
   -1.7378   -2.1250   -1.0407 C   0  0  0  0  0  0  0  0  0  0  0  0
   -2.8069   -1.3388    0.9782 C   0  0  0  0  0  0  0  0  0  0  0  0
   -2.9696   -2.5726   -1.5186 C   0  0  0  0  0  0  0  0  0  0  0  0
   -4.0386   -1.7863    0.5001 C   0  0  0  0  0  0  0  0  0  0  0  0
   -4.1199   -2.4031   -0.7481 C   0  0  0  0  0  0  0  0  0  0  0  0
    1.9713   -2.3364    2.6012 H   0  0  0  0  0  0  0  0  0  0  0  0
    1.5003   -0.6511    2.6959 H   0  0  0  0  0  0  0  0  0  0  0  0
    2.5277    2.4430   -0.7365 H   0  0  0  0  0  0  0  0  0  0  0  0
   -1.9570    1.1189    0.8700 H   0  0  0  0  0  0  0  0  0  0  0  0
    0.7679    4.0237   -0.7606 H   0  0  0  0  0  0  0  0  0  0  0  0
    3.0273    0.9884   -2.4232 H   0  0  0  0  0  0  0  0  0  0  0  0
    4.6344    0.3027   -2.4372 H   0  0  0  0  0  0  0  0  0  0  0  0
    4.3523    1.7180   -1.4455 H   0  0  0  0  0  0  0  0  0  0  0  0
   -2.7572   -0.8733    1.9590 H   0  0  0  0  0  0  0  0  0  0  0  0
   -3.0502   -3.0553   -2.4892 H   0  0  0  0  0  0  0  0  0  0  0  0
   -4.9338   -1.6573    1.1014 H   0  0  0  0  0  0  0  0  0  0  0  0
   -5.0789   -2.7522   -1.1197 H   0  0  0  0  0  0  0  0  0  0  0  0
  1 21  1  0  0  0  0
  2  8  1  0  0  0  0
  3  8  2  0  0  0  0
  4  9  1  0  0  0  0
  4 11  1  0  0  0  0
  4 14  1  0  0  0  0
  5 12  2  0  0  0  0
  5 13  1  0  0  0  0
  6  7  1  0  0  0  0
  6 11  2  0  0  0  0
  7 14  2  0  0  0  0
  8 18  1  0  0  0  0
  9 10  2  0  0  0  0
  9 15  1  0  0  0  0
 10 12  1  0  0  0  0
 10 16  1  0  0  0  0
 11 13  1  0  0  0  0
 12 17  1  0  0  0  0
 13 26  1  0  0  0  0
 13 27  1  0  0  0  0
 14 20  1  0  0  0  0
 15 19  2  0  0  0  0
 15 28  1  0  0  0  0
 16 18  2  0  0  0  0
 16 29  1  0  0  0  0
 17 21  1  0  0  0  0
 17 22  2  0  0  0  0
 18 19  1  0  0  0  0
 19 30  1  0  0  0  0
 20 31  1  0  0  0  0
 20 32  1  0  0  0  0
 20 33  1  0  0  0  0
 21 23  2  0  0  0  0
 22 24  1  0  0  0  0
 22 34  1  0  0  0  0
 23 25  1  0  0  0  0
 23 35  1  0  0  0  0
 24 25  2  0  0  0  0
 24 36  1  0  0  0  0
 25 37  1  0  0  0  0
M  CHG  2   2  -1   8   1
M  END
> <PUBCHEM_COMPOUND_CID>
12317881

> <PUBCHEM_CONFORMER_RMSD>
0.6

> <PUBCHEM_CONFORMER_DIVERSEORDER>
1
6
3
7
5
4
2

> <PUBCHEM_MMFF94_PARTIAL_CHARGES>
32
1 -0.18
10 0.09
11 0.01
12 0.28
13 0.43
14 0.01
15 -0.15
16 -0.15
17 0.09
18 0.13
19 -0.15
2 -0.52
20 0.18
21 0.18
22 -0.15
23 -0.15
24 -0.15
25 -0.15
28 0.15
29 0.15
3 -0.52
30 0.15
34 0.15
35 0.15
36 0.15
37 0.15
4 0.33
5 -0.7
6 -0.34
7 -0.34
8 0.91
9 -0.02

> <PUBCHEM_EFFECTIVE_ROTOR_COUNT>
2.2

> <PUBCHEM_PHARMACOPHORE_FEATURES>
10
1 2 acceptor
1 2 anion
1 3 acceptor
1 5 acceptor
3 4 6 11 cation
3 4 7 14 cation
5 4 6 7 11 14 rings
6 17 21 22 23 24 25 rings
6 9 10 15 16 18 19 rings
7 4 5 9 10 11 12 13 rings

> <PUBCHEM_HEAVY_ATOM_COUNT>
25

> <PUBCHEM_ATOM_DEF_STEREO_COUNT>
0

> <PUBCHEM_ATOM_UDEF_STEREO_COUNT>
0

> <PUBCHEM_BOND_DEF_STEREO_COUNT>
0

> <PUBCHEM_BOND_UDEF_STEREO_COUNT>
0

> <PUBCHEM_ISOTOPIC_ATOM_COUNT>
0

> <PUBCHEM_COMPONENT_COUNT>
1

> <PUBCHEM_CACTVS_TAUTO_COUNT>
1

> <PUBCHEM_CONFORMER_ID>
00BBF4B900000001

> <PUBCHEM_MMFF94_ENERGY>
97.1845

> <PUBCHEM_FEATURE_SELFOVERLAP>
53.398

> <PUBCHEM_SHAPE_FINGERPRINT>
104564 63 18410572851433247787
10871710 139 18336001812532278564
10906281 52 17759531353809137640
11578080 2 17845923100369914048
12035759 4 18188482480469077577
12156800 1 18049477810008099333
12403259 327 15195299675693177423
12422481 6 17912114710027516099
12553582 1 18338802337373228794
12788726 201 18409172103826695962
13004483 165 18341036510741059270
13134695 92 18265328606781468759
13140716 1 18410576193155480121
13911987 19 17610358395429140220
15131766 46 15505520225035453694
15210252 30 17750510865672161477
15238133 3 17825074122609029455
16752209 62 18341321193894868171
17138139 8 17548646930878229213
17980427 23 16902106940313413706
1813 80 18272094953820245030
21041028 32 18335986453961193867
21285901 2 17988660566121981415
221357 26 18262507226149483143
2255824 54 17619622927126817133
22620623 9 18200044940884488654
22907989 373 18410575054714768869
23419403 2 14944107482794491384
23558518 356 18260553269179256592
23598288 3 18265606585697349202
23598291 2 17913501408722136951
238 59 17113523278054174439
25 1 17613432663656223529
25147074 1 18040720208904699354
34934 24 18125160691150378572
352729 6 18051134687704679376
474 4 17329980812652809737
6438718 38 18341905030305703923
7164475 11 18409449163772198734
7471813 234 18335124424102832618
81228 2 17976221730820503243

> <PUBCHEM_SHAPE_MULTIPOLES>
479.71
6.61
4.75
1.53
1.45
8.03
0.2
-5.25
1.79
0.81
0.21
-0.13
-1.2
-1.35

> <PUBCHEM_SHAPE_SELFOVERLAP>
1061.734

> <PUBCHEM_SHAPE_VOLUME>
257.8

> <PUBCHEM_COORDINATE_TYPE>
2
5
10

$$$$

520217
  -OEChem-12311612553D

 32 34  0     0  0  0  0  0  0999 V2000
    3.3595   -0.2396    1.5071 F   0  0  0  0  0  0  0  0  0  0  0  0
    0.9714    4.4720   -0.5239 O   0  0  0  0  0  0  0  0  0  0  0  0
   -4.5258   -2.0360    0.1916 O   0  5  0  0  0  0  0  0  0  0  0  0
   -2.6852   -2.8851    1.0342 O   0  0  0  0  0  0  0  0  0  0  0  0
   -0.6537    2.8718   -0.7264 N   0  0  0  0  0  0  0  0  0  0  0  0
    1.6388    1.5220    0.7027 N   0  0  0  0  0  0  0  0  0  0  0  0
   -3.3074   -1.9481    0.4781 N   0  3  0  0  0  0  0  0  0  0  0  0
   -0.5477    0.5322    0.1206 C   0  0  0  0  0  0  0  0  0  0  0  0
   -1.2380    1.6212   -0.4365 C   0  0  0  0  0  0  0  0  0  0  0  0
    0.9393    0.5273    0.2737 C   0  0  0  0  0  0  0  0  0  0  0  0
    1.6954   -0.6945   -0.1259 C   0  0  0  0  0  0  0  0  0  0  0  0
   -1.2497   -0.6409    0.4436 C   0  0  0  0  0  0  0  0  0  0  0  0
   -2.5960    1.4770   -0.7585 C   0  0  0  0  0  0  0  0  0  0  0  0
    0.9605    2.7328    1.1111 C   0  0  0  0  0  0  0  0  0  0  0  0
   -2.6110   -0.7514    0.1628 C   0  0  0  0  0  0  0  0  0  0  0  0
    0.4559    3.4261   -0.1264 C   0  0  0  0  0  0  0  0  0  0  0  0
   -3.2799    0.3002   -0.4540 C   0  0  0  0  0  0  0  0  0  0  0  0
    2.8811   -1.0146    0.5230 C   0  0  0  0  0  0  0  0  0  0  0  0
    1.2023   -1.4993   -1.1453 C   0  0  0  0  0  0  0  0  0  0  0  0
    3.5855   -2.1581    0.1463 C   0  0  0  0  0  0  0  0  0  0  0  0
    1.9066   -2.6429   -1.5220 C   0  0  0  0  0  0  0  0  0  0  0  0
    3.0981   -2.9722   -0.8761 C   0  0  0  0  0  0  0  0  0  0  0  0
   -0.7197   -1.4640    0.9181 H   0  0  0  0  0  0  0  0  0  0  0  0
   -1.1399    3.4541   -1.4037 H   0  0  0  0  0  0  0  0  0  0  0  0
   -3.1441    2.2953   -1.2208 H   0  0  0  0  0  0  0  0  0  0  0  0
    1.6783    3.3928    1.6103 H   0  0  0  0  0  0  0  0  0  0  0  0
    0.1511    2.5535    1.8280 H   0  0  0  0  0  0  0  0  0  0  0  0
   -4.3361    0.2455   -0.7049 H   0  0  0  0  0  0  0  0  0  0  0  0
    0.3025   -1.2541   -1.7015 H   0  0  0  0  0  0  0  0  0  0  0  0
    4.5136   -2.4140    0.6489 H   0  0  0  0  0  0  0  0  0  0  0  0
    1.5327   -3.2717   -2.3248 H   0  0  0  0  0  0  0  0  0  0  0  0
    3.6478   -3.8614   -1.1708 H   0  0  0  0  0  0  0  0  0  0  0  0
  1 18  1  0  0  0  0
  2 16  2  0  0  0  0
  3  7  1  0  0  0  0
  4  7  2  0  0  0  0
  5  9  1  0  0  0  0
  5 16  1  0  0  0  0
  5 24  1  0  0  0  0
  6 10  2  0  0  0  0
  6 14  1  0  0  0  0
  7 15  1  0  0  0  0
  8  9  2  0  0  0  0
  8 10  1  0  0  0  0
  8 12  1  0  0  0  0
  9 13  1  0  0  0  0
 10 11  1  0  0  0  0
 11 18  1  0  0  0  0
 11 19  2  0  0  0  0
 12 15  2  0  0  0  0
 12 23  1  0  0  0  0
 13 17  2  0  0  0  0
 13 25  1  0  0  0  0
 14 16  1  0  0  0  0
 14 26  1  0  0  0  0
 14 27  1  0  0  0  0
 15 17  1  0  0  0  0
 17 28  1  0  0  0  0
 18 20  2  0  0  0  0
 19 21  1  0  0  0  0
 19 29  1  0  0  0  0
 20 22  1  0  0  0  0
 20 30  1  0  0  0  0
 21 22  2  0  0  0  0
 21 31  1  0  0  0  0
 22 32  1  0  0  0  0
M  CHG  2   3  -1   7   1
M  END
> <PUBCHEM_COMPOUND_CID>
520217

> <PUBCHEM_CONFORMER_RMSD>
0.6

> <PUBCHEM_CONFORMER_DIVERSEORDER>
1
2
4
6
8
7
3
5

> <PUBCHEM_MMFF94_PARTIAL_CHARGES>
30
1 -0.19
10 0.28
11 0.09
12 -0.15
13 -0.15
14 0.31
15 0.13
16 0.57
17 -0.15
18 0.19
19 -0.15
2 -0.57
20 -0.15
21 -0.15
22 -0.15
23 0.15
24 0.37
25 0.15
28 0.15
29 0.15
3 -0.52
30 0.15
31 0.15
32 0.15
4 -0.52
5 -0.55
6 -0.7
7 0.91
8 0.09
9 0.12

> <PUBCHEM_EFFECTIVE_ROTOR_COUNT>
2.4

> <PUBCHEM_PHARMACOPHORE_FEATURES>
9
1 2 acceptor
1 3 acceptor
1 3 anion
1 4 acceptor
1 5 donor
1 6 acceptor
6 11 18 19 20 21 22 rings
6 8 9 12 13 15 17 rings
7 5 6 8 9 10 14 16 rings

> <PUBCHEM_HEAVY_ATOM_COUNT>
22

> <PUBCHEM_ATOM_DEF_STEREO_COUNT>
0

> <PUBCHEM_ATOM_UDEF_STEREO_COUNT>
0

> <PUBCHEM_BOND_DEF_STEREO_COUNT>
0

> <PUBCHEM_BOND_UDEF_STEREO_COUNT>
0

> <PUBCHEM_ISOTOPIC_ATOM_COUNT>
0

> <PUBCHEM_COMPONENT_COUNT>
1

> <PUBCHEM_CACTVS_TAUTO_COUNT>
3

> <PUBCHEM_CONFORMER_ID>
0007F01900000001

> <PUBCHEM_MMFF94_ENERGY>
87.5999

> <PUBCHEM_FEATURE_SELFOVERLAP>
45.765

> <PUBCHEM_SHAPE_FINGERPRINT>
10366900 7 17912918397066251038
10906281 52 18340763737083695388
11578080 2 16228817481993614484
11582403 64 15964194514070369320
12173636 292 17327460220579365380
12363563 72 18409172090841996043
12553582 1 18338813238000096183
12714826 92 17969237654646761227
12788726 201 17978223855405400450
12839892 36 17546433939876709963
13083527 12 18122610919475442939
13140716 1 18269273474007664658
14022347 108 18119258267961539395
14790565 3 17761501682719656749
14863182 85 17397278599426933191
15415430 2 17908140979998104431
15422964 175 18342174436345438086
16752209 62 17615119984386817440
16945 1 17989200468958800393
19049666 15 17551226273112950390
19591789 44 17690003753079438740
20510252 161 17764306145896976056
20600515 1 18042670724524622196
20645477 70 18120647200730712303
21452121 199 18335143093934947030
21665056 4 17257943589217498854
23184049 29 18335136462336870707
23419403 2 17680396099968616695
23557571 272 18196650696907543470
23559900 14 18337663243500685889
2748010 2 18270101470804122028
3060560 45 17979079606417766044
3084891 72 17904755579802082997
314173 41 18408325471293975459
7364860 26 18194405721565101153
81228 2 18053671265330168296
8809292 202 17838052607243880574
9709674 26 17839457791847516206

> <PUBCHEM_SHAPE_MULTIPOLES>
412.92
6.02
4.66
1.11
2.54
2.91
-0.03
-5.61
-0.26
-2.75
0.12
0.48
-0.12
1.7

> <PUBCHEM_SHAPE_SELFOVERLAP>
915.478

> <PUBCHEM_SHAPE_VOLUME>
219.6

> <PUBCHEM_COORDINATE_TYPE>
2
5
10

$$$$

76168
  -OEChem-12311612563D

 33 35  0     0  0  0  0  0  0999 V2000
    0.3694   -4.5949    0.2251 Cl  0  0  0  0  0  0  0  0  0  0  0  0
   -1.1585    1.7250   -2.0181 Cl  0  0  0  0  0  0  0  0  0  0  0  0
    2.4936    3.2168    0.3838 O   0  0  0  0  0  0  0  0  0  0  0  0
    2.3932    1.0097   -0.3569 N   0  0  0  0  0  0  0  0  0  0  0  0
   -0.0407    1.5424    1.3794 N   0  0  0  0  0  0  0  0  0  0  0  0
    0.5873   -0.5876    0.3212 C   0  0  0  0  0  0  0  0  0  0  0  0
    1.8563   -0.3182   -0.2324 C   0  0  0  0  0  0  0  0  0  0  0  0
   -0.3690    0.4940    0.7029 C   0  0  0  0  0  0  0  0  0  0  0  0
    1.3445    1.6806    1.7766 C   0  0  0  0  0  0  0  0  0  0  0  0
   -1.7925    0.3834    0.2714 C   0  0  0  0  0  0  0  0  0  0  0  0
    2.1139    2.0525    0.5342 C   0  0  0  0  0  0  0  0  0  0  0  0
    0.1430   -1.9135    0.4751 C   0  0  0  0  0  0  0  0  0  0  0  0
    2.6125   -1.4148   -0.6920 C   0  0  0  0  0  0  0  0  0  0  0  0
    3.3382    1.2704   -1.4427 C   0  0  0  0  0  0  0  0  0  0  0  0
    0.9266   -2.9779    0.0404 C   0  0  0  0  0  0  0  0  0  0  0  0
    2.1554   -2.7279   -0.5544 C   0  0  0  0  0  0  0  0  0  0  0  0
   -2.2322    0.9095   -0.9390 C   0  0  0  0  0  0  0  0  0  0  0  0
   -2.6800   -0.2684    1.1224 C   0  0  0  0  0  0  0  0  0  0  0  0
   -3.5730    0.7830   -1.3024 C   0  0  0  0  0  0  0  0  0  0  0  0
   -4.0207   -0.3949    0.7589 C   0  0  0  0  0  0  0  0  0  0  0  0
   -4.4673    0.1308   -0.4535 C   0  0  0  0  0  0  0  0  0  0  0  0
    1.7578    0.7934    2.2688 H   0  0  0  0  0  0  0  0  0  0  0  0
    1.4295    2.5008    2.4980 H   0  0  0  0  0  0  0  0  0  0  0  0
   -0.8159   -2.1365    0.9319 H   0  0  0  0  0  0  0  0  0  0  0  0
    3.5955   -1.2775   -1.1357 H   0  0  0  0  0  0  0  0  0  0  0  0
    3.0023    0.7827   -2.3632 H   0  0  0  0  0  0  0  0  0  0  0  0
    4.3280    0.9067   -1.1501 H   0  0  0  0  0  0  0  0  0  0  0  0
    3.4194    2.3432   -1.6419 H   0  0  0  0  0  0  0  0  0  0  0  0
    2.7802   -3.5444   -0.9075 H   0  0  0  0  0  0  0  0  0  0  0  0
   -2.3506   -0.6708    2.0767 H   0  0  0  0  0  0  0  0  0  0  0  0
   -3.9371    1.1872   -2.2435 H   0  0  0  0  0  0  0  0  0  0  0  0
   -4.7177   -0.8999    1.4213 H   0  0  0  0  0  0  0  0  0  0  0  0
   -5.5114    0.0329   -0.7360 H   0  0  0  0  0  0  0  0  0  0  0  0
  1 15  1  0  0  0  0
  2 17  1  0  0  0  0
  3 11  2  0  0  0  0
  4  7  1  0  0  0  0
  4 11  1  0  0  0  0
  4 14  1  0  0  0  0
  5  8  2  0  0  0  0
  5  9  1  0  0  0  0
  6  7  2  0  0  0  0
  6  8  1  0  0  0  0
  6 12  1  0  0  0  0
  7 13  1  0  0  0  0
  8 10  1  0  0  0  0
  9 11  1  0  0  0  0
  9 22  1  0  0  0  0
  9 23  1  0  0  0  0
 10 17  1  0  0  0  0
 10 18  2  0  0  0  0
 12 15  2  0  0  0  0
 12 24  1  0  0  0  0
 13 16  2  0  0  0  0
 13 25  1  0  0  0  0
 14 26  1  0  0  0  0
 14 27  1  0  0  0  0
 14 28  1  0  0  0  0
 15 16  1  0  0  0  0
 16 29  1  0  0  0  0
 17 19  2  0  0  0  0
 18 20  1  0  0  0  0
 18 30  1  0  0  0  0
 19 21  1  0  0  0  0
 19 31  1  0  0  0  0
 20 21  2  0  0  0  0
 20 32  1  0  0  0  0
 21 33  1  0  0  0  0
M  END
> <PUBCHEM_COMPOUND_CID>
76168

> <PUBCHEM_CONFORMER_RMSD>
0.6

> <PUBCHEM_CONFORMER_DIVERSEORDER>
2
3
6
7
5
8
4
1

> <PUBCHEM_MMFF94_PARTIAL_CHARGES>
28
1 -0.18
10 0.09
11 0.57
12 -0.15
13 -0.15
14 0.3
15 0.18
16 -0.15
17 0.18
18 -0.15
19 -0.15
2 -0.18
20 -0.15
21 -0.15
24 0.15
25 0.15
29 0.15
3 -0.57
30 0.15
31 0.15
32 0.15
33 0.15
4 -0.48
5 -0.7
6 0.09
7 0.12
8 0.28
9 0.31

> <PUBCHEM_EFFECTIVE_ROTOR_COUNT>
1.4

> <PUBCHEM_PHARMACOPHORE_FEATURES>
5
1 3 acceptor
1 5 acceptor
6 10 17 18 19 20 21 rings
6 6 7 12 13 15 16 rings
7 4 5 6 7 8 9 11 rings

> <PUBCHEM_HEAVY_ATOM_COUNT>
21

> <PUBCHEM_ATOM_DEF_STEREO_COUNT>
0

> <PUBCHEM_ATOM_UDEF_STEREO_COUNT>
0

> <PUBCHEM_BOND_DEF_STEREO_COUNT>
0

> <PUBCHEM_BOND_UDEF_STEREO_COUNT>
0

> <PUBCHEM_ISOTOPIC_ATOM_COUNT>
0

> <PUBCHEM_COMPONENT_COUNT>
1

> <PUBCHEM_CACTVS_TAUTO_COUNT>
1

> <PUBCHEM_CONFORMER_ID>
0001298800000002

> <PUBCHEM_MMFF94_ENERGY>
86.2762

> <PUBCHEM_FEATURE_SELFOVERLAP>
25.383

> <PUBCHEM_SHAPE_FINGERPRINT>
10064457 181 18053407644759061819
10165383 225 18193296284152074004
11578080 2 16986000437970159625
12553582 1 17836375851938273451
12716301 132 17623275479232438320
12730499 353 18409736196668517267
12788726 201 16829521048223495150
13004483 165 17329973708497899003
13140716 1 18411136973844598267
13149001 5 18057062391619266204
13533116 47 18342739582066065947
13681431 1 18048589331255623898
13911987 19 18192451709552370918
15502722 9 18411978057447883341
16945 1 18342463637936509928
18186145 218 18271532003924696497
19591789 44 18267873967362389811
20361792 2 17486754308573801191
20645477 70 18200867401546917863
21452121 199 17976528417218785818
21452121 99 18051688038801397936
21524375 3 18260551173024466322
21731516 1 17702094777491251231
22112679 90 17344641330818710969
2255824 54 18343300349089625323
22802520 49 17970347018934730581
23114952 82 18188490142833191301
23419403 2 17755909394770794042
23557571 272 17603594040912427001
23559900 14 17968372338895319039
238 59 18266436798638383527
25 1 18271812379489882768
257057 1 17691961566592271122
2748010 2 18190759697941873555
3052486 1 17685207666121480535
3060560 45 18337950190017941924
3323516 105 18341900722585400431
3729539 64 18265354871144586364
4409770 3 17262138737679693312
458136 41 18339372953911390763
495365 180 18268406019922125953
57527452 28 15832203649240813135
633830 44 17988093295479049441
6442390 28 18193841663668567923
6992083 37 8327996348019902958
7364860 26 18339637841471404395
81228 2 17400074670022566906
84936 31 18413382142354950205

> <PUBCHEM_SHAPE_MULTIPOLES>
420.08
5.93
3.99
1.49
5.83
3.78
-0.16
-0.84
-1.46
-4.07
0.26
0.28
-0.94
0.87

> <PUBCHEM_SHAPE_SELFOVERLAP>
901.538

> <PUBCHEM_SHAPE_VOLUME>
233.1

> <PUBCHEM_COORDINATE_TYPE>
2
5
10

$$$$

12947024
  -OEChem-12311612573D

 30 32  0     0  0  0  0  0  0999 V2000
   -1.5209   -4.3401    0.9920 Br  0  0  0  0  0  0  0  0  0  0  0  0
    2.6867    1.5730    1.4233 F   0  0  0  0  0  0  0  0  0  0  0  0
   -2.0915    3.7043   -0.7316 O   0  0  0  0  0  0  0  0  0  0  0  0
   -2.4106    1.4371   -0.7598 N   0  0  0  0  0  0  0  0  0  0  0  0
    0.2432    1.8648    0.6165 N   0  0  0  0  0  0  0  0  0  0  0  0
   -0.8961   -0.2877    0.2066 C   0  0  0  0  0  0  0  0  0  0  0  0
    0.2888    0.6208    0.2803 C   0  0  0  0  0  0  0  0  0  0  0  0
   -2.1114    0.1146   -0.3714 C   0  0  0  0  0  0  0  0  0  0  0  0
    1.6282    0.0808   -0.0919 C   0  0  0  0  0  0  0  0  0  0  0  0
   -0.7372   -1.6177    0.6299 C   0  0  0  0  0  0  0  0  0  0  0  0
   -1.0277    2.4438    0.9940 C   0  0  0  0  0  0  0  0  0  0  0  0
   -3.1047   -0.8466   -0.6123 C   0  0  0  0  0  0  0  0  0  0  0  0
   -1.8612    2.5937   -0.2508 C   0  0  0  0  0  0  0  0  0  0  0  0
   -1.7533   -2.5510    0.4285 C   0  0  0  0  0  0  0  0  0  0  0  0
   -2.9293   -2.1699   -0.2082 C   0  0  0  0  0  0  0  0  0  0  0  0
    2.7696    0.5949    0.5100 C   0  0  0  0  0  0  0  0  0  0  0  0
    1.7174   -0.9324   -1.0382 C   0  0  0  0  0  0  0  0  0  0  0  0
    4.0209    0.0875    0.1601 C   0  0  0  0  0  0  0  0  0  0  0  0
    2.9687   -1.4398   -1.3880 C   0  0  0  0  0  0  0  0  0  0  0  0
    4.1204   -0.9297   -0.7889 C   0  0  0  0  0  0  0  0  0  0  0  0
    0.1817   -1.9334    1.1199 H   0  0  0  0  0  0  0  0  0  0  0  0
   -3.1568    1.5526   -1.4409 H   0  0  0  0  0  0  0  0  0  0  0  0
   -0.8545    3.4391    1.4175 H   0  0  0  0  0  0  0  0  0  0  0  0
   -1.5546    1.8658    1.7617 H   0  0  0  0  0  0  0  0  0  0  0  0
   -4.0419   -0.5657   -1.0883 H   0  0  0  0  0  0  0  0  0  0  0  0
   -3.7258   -2.8871   -0.3890 H   0  0  0  0  0  0  0  0  0  0  0  0
    0.8492   -1.3255   -1.5584 H   0  0  0  0  0  0  0  0  0  0  0  0
    4.9176    0.4851    0.6263 H   0  0  0  0  0  0  0  0  0  0  0  0
    3.0474   -2.2251   -2.1342 H   0  0  0  0  0  0  0  0  0  0  0  0
    5.0949   -1.3231   -1.0631 H   0  0  0  0  0  0  0  0  0  0  0  0
  1 14  1  0  0  0  0
  2 16  1  0  0  0  0
  3 13  2  0  0  0  0
  4  8  1  0  0  0  0
  4 13  1  0  0  0  0
  4 22  1  0  0  0  0
  5  7  2  0  0  0  0
  5 11  1  0  0  0  0
  6  7  1  0  0  0  0
  6  8  2  0  0  0  0
  6 10  1  0  0  0  0
  7  9  1  0  0  0  0
  8 12  1  0  0  0  0
  9 16  1  0  0  0  0
  9 17  2  0  0  0  0
 10 14  2  0  0  0  0
 10 21  1  0  0  0  0
 11 13  1  0  0  0  0
 11 23  1  0  0  0  0
 11 24  1  0  0  0  0
 12 15  2  0  0  0  0
 12 25  1  0  0  0  0
 14 15  1  0  0  0  0
 15 26  1  0  0  0  0
 16 18  2  0  0  0  0
 17 19  1  0  0  0  0
 17 27  1  0  0  0  0
 18 20  1  0  0  0  0
 18 28  1  0  0  0  0
 19 20  2  0  0  0  0
 19 29  1  0  0  0  0
 20 30  1  0  0  0  0
M  END
> <PUBCHEM_COMPOUND_CID>
12947024

> <PUBCHEM_CONFORMER_RMSD>
0.6

> <PUBCHEM_CONFORMER_DIVERSEORDER>
1
2
5
6
7
8
3
4

> <PUBCHEM_MMFF94_PARTIAL_CHARGES>
28
1 -0.11
10 -0.15
11 0.31
12 -0.15
13 0.57
14 0.11
15 -0.15
16 0.19
17 -0.15
18 -0.15
19 -0.15
2 -0.19
20 -0.15
21 0.15
22 0.37
25 0.15
26 0.15
27 0.15
28 0.15
29 0.15
3 -0.57
30 0.15
4 -0.55
5 -0.7
6 0.09
7 0.28
8 0.12
9 0.09

> <PUBCHEM_EFFECTIVE_ROTOR_COUNT>
1.4

> <PUBCHEM_PHARMACOPHORE_FEATURES>
7
1 1 hydrophobe
1 3 acceptor
1 4 donor
1 5 acceptor
6 6 8 10 12 14 15 rings
6 9 16 17 18 19 20 rings
7 4 5 6 7 8 11 13 rings

> <PUBCHEM_HEAVY_ATOM_COUNT>
20

> <PUBCHEM_ATOM_DEF_STEREO_COUNT>
0

> <PUBCHEM_ATOM_UDEF_STEREO_COUNT>
0

> <PUBCHEM_BOND_DEF_STEREO_COUNT>
0

> <PUBCHEM_BOND_UDEF_STEREO_COUNT>
0

> <PUBCHEM_ISOTOPIC_ATOM_COUNT>
0

> <PUBCHEM_COMPONENT_COUNT>
1

> <PUBCHEM_CACTVS_TAUTO_COUNT>
3

> <PUBCHEM_CONFORMER_ID>
00C58E5000000001

> <PUBCHEM_MMFF94_ENERGY>
76.2652

> <PUBCHEM_FEATURE_SELFOVERLAP>
35.531

> <PUBCHEM_SHAPE_FINGERPRINT>
10366900 7 18272372005428786990
10906281 52 18195244649121775545
11578080 2 15728056051956750452
11582403 64 16545444854730370496
116883 192 18411982502644193261
12173636 292 18263643957325380557
12500047 106 18265334997914188884
12553582 1 18049736400993179279
12730499 353 17616822033384208717
12788726 201 18409726253255107819
13140716 1 18195249042477498994
13294875 104 17691387625864771784
14022347 108 18261115231069030651
14223421 5 18271241720375951312
14790565 3 18337962190758440557
14863182 85 15738544499981766263
15415430 2 18410857663631338811
16752209 62 18335410219399710355
167882 2 17180808450640873957
16945 1 18333729139077126003
17357779 13 18270951449100425549
19049666 15 18343021043351000022
19591789 44 18123478181025821051
20510252 161 18411982434030055681
20600515 1 17825647105057259245
20645477 70 16968286605820693087
21285901 2 18272653458941120143
21452121 199 17829047963199405038
21665056 4 18192439575515112191
22182313 1 17989203772759478288
22802520 49 18201718435872724184
23402539 116 18339630218120706127
23419403 2 17345734387395542857
23557571 272 18339079405755250084
23559900 14 18412257351119271400
2748010 2 17909255128853540577
314173 41 17974853079388990403
46194498 28 17114897603908548639
7364860 26 17256813819882661099
81228 2 18410866481246488697
8809292 202 18341897368126258510
9709674 26 18343585123086561734

> <PUBCHEM_SHAPE_MULTIPOLES>
394.43
5.96
4.3
1.12
5.18
0.04
0.01
-2.57
-0.92
-4.47
0.69
0.36
-0.1
1.55

> <PUBCHEM_SHAPE_SELFOVERLAP>
857.704

> <PUBCHEM_SHAPE_VOLUME>
217.5

> <PUBCHEM_COORDINATE_TYPE>
2
5
10

$$$$

21930924
  -OEChem-12311612573D

 35 38  0     0  0  0  0  0  0999 V2000
   -1.1461    4.6320    0.6965 Br  0  0  0  0  0  0  0  0  0  0  0  0
   -1.2743   -0.3156   -2.0220 F   0  0  0  0  0  0  0  0  0  0  0  0
    2.2297   -0.4017   -0.0019 N   0  0  0  0  0  0  0  0  0  0  0  0
   -0.2020   -1.7282    1.2808 N   0  0  0  0  0  0  0  0  0  0  0  0
    3.0917   -2.3923    0.3851 N   0  0  0  0  0  0  0  0  0  0  0  0
    3.8643   -1.7672   -0.5631 N   0  0  0  0  0  0  0  0  0  0  0  0
    1.3915    0.7311    0.0933 C   0  0  0  0  0  0  0  0  0  0  0  0
    0.0615    0.6351    0.5481 C   0  0  0  0  0  0  0  0  0  0  0  0
    2.1338   -1.5603    0.7355 C   0  0  0  0  0  0  0  0  0  0  0  0
   -0.6702   -0.6648    0.7204 C   0  0  0  0  0  0  0  0  0  0  0  0
    1.1442   -1.7367    1.8202 C   0  0  0  0  0  0  0  0  0  0  0  0
    3.3562   -0.5728   -0.7641 C   0  0  0  0  0  0  0  0  0  0  0  0
    1.9227    1.9869   -0.2429 C   0  0  0  0  0  0  0  0  0  0  0  0
   -2.0566   -0.7692    0.1751 C   0  0  0  0  0  0  0  0  0  0  0  0
   -0.6787    1.8148    0.7412 C   0  0  0  0  0  0  0  0  0  0  0  0
    1.1631    3.1441   -0.0685 C   0  0  0  0  0  0  0  0  0  0  0  0
   -0.1289    3.0600    0.4380 C   0  0  0  0  0  0  0  0  0  0  0  0
    3.8570    0.3446   -1.8090 C   0  0  0  0  0  0  0  0  0  0  0  0
   -2.2886   -0.5864   -1.1882 C   0  0  0  0  0  0  0  0  0  0  0  0
   -3.1206   -1.0510    1.0320 C   0  0  0  0  0  0  0  0  0  0  0  0
   -3.5847   -0.6855   -1.6945 C   0  0  0  0  0  0  0  0  0  0  0  0
   -4.4166   -1.1499    0.5256 C   0  0  0  0  0  0  0  0  0  0  0  0
   -4.6486   -0.9670   -0.8375 C   0  0  0  0  0  0  0  0  0  0  0  0
    1.3136   -2.7029    2.3085 H   0  0  0  0  0  0  0  0  0  0  0  0
    1.2665   -0.9757    2.6005 H   0  0  0  0  0  0  0  0  0  0  0  0
    2.9515    2.1508   -0.5296 H   0  0  0  0  0  0  0  0  0  0  0  0
   -1.6993    1.7654    1.1154 H   0  0  0  0  0  0  0  0  0  0  0  0
    1.6086    4.1078   -0.3026 H   0  0  0  0  0  0  0  0  0  0  0  0
    3.0541    0.8185   -2.3803 H   0  0  0  0  0  0  0  0  0  0  0  0
    4.5332    1.0956   -1.3909 H   0  0  0  0  0  0  0  0  0  0  0  0
    4.4468   -0.2248   -2.5377 H   0  0  0  0  0  0  0  0  0  0  0  0
   -2.9541   -1.1921    2.0968 H   0  0  0  0  0  0  0  0  0  0  0  0
   -3.7651   -0.5431   -2.7559 H   0  0  0  0  0  0  0  0  0  0  0  0
   -5.2452   -1.3683    1.1929 H   0  0  0  0  0  0  0  0  0  0  0  0
   -5.6577   -1.0437   -1.2316 H   0  0  0  0  0  0  0  0  0  0  0  0
  1 17  1  0  0  0  0
  2 19  1  0  0  0  0
  3  7  1  0  0  0  0
  3  9  1  0  0  0  0
  3 12  1  0  0  0  0
  4 10  2  0  0  0  0
  4 11  1  0  0  0  0
  5  6  1  0  0  0  0
  5  9  2  0  0  0  0
  6 12  2  0  0  0  0
  7  8  2  0  0  0  0
  7 13  1  0  0  0  0
  8 10  1  0  0  0  0
  8 15  1  0  0  0  0
  9 11  1  0  0  0  0
 10 14  1  0  0  0  0
 11 24  1  0  0  0  0
 11 25  1  0  0  0  0
 12 18  1  0  0  0  0
 13 16  2  0  0  0  0
 13 26  1  0  0  0  0
 14 19  1  0  0  0  0
 14 20  2  0  0  0  0
 15 17  2  0  0  0  0
 15 27  1  0  0  0  0
 16 17  1  0  0  0  0
 16 28  1  0  0  0  0
 18 29  1  0  0  0  0
 18 30  1  0  0  0  0
 18 31  1  0  0  0  0
 19 21  2  0  0  0  0
 20 22  1  0  0  0  0
 20 32  1  0  0  0  0
 21 23  1  0  0  0  0
 21 33  1  0  0  0  0
 22 23  2  0  0  0  0
 22 34  1  0  0  0  0
 23 35  1  0  0  0  0
M  END
> <PUBCHEM_COMPOUND_CID>
21930924

> <PUBCHEM_CONFORMER_RMSD>
0.6

> <PUBCHEM_CONFORMER_DIVERSEORDER>
3
5
6
4
2
1

> <PUBCHEM_MMFF94_PARTIAL_CHARGES>
30
1 -0.11
10 0.28
11 0.43
12 0.01
13 -0.15
14 0.09
15 -0.15
16 -0.15
17 0.11
18 0.18
19 0.19
2 -0.19
20 -0.15
21 -0.15
22 -0.15
23 -0.15
26 0.15
27 0.15
28 0.15
3 0.33
32 0.15
33 0.15
34 0.15
35 0.15
4 -0.7
5 -0.34
6 -0.34
7 -0.02
8 0.09
9 0.01

> <PUBCHEM_EFFECTIVE_ROTOR_COUNT>
1.2

> <PUBCHEM_PHARMACOPHORE_FEATURES>
8
1 1 hydrophobe
1 4 acceptor
3 3 5 9 cation
3 3 6 12 cation
5 3 5 6 9 12 rings
6 14 19 20 21 22 23 rings
6 7 8 13 15 16 17 rings
7 3 4 7 8 9 10 11 rings

> <PUBCHEM_HEAVY_ATOM_COUNT>
23

> <PUBCHEM_ATOM_DEF_STEREO_COUNT>
0

> <PUBCHEM_ATOM_UDEF_STEREO_COUNT>
0

> <PUBCHEM_BOND_DEF_STEREO_COUNT>
0

> <PUBCHEM_BOND_UDEF_STEREO_COUNT>
0

> <PUBCHEM_ISOTOPIC_ATOM_COUNT>
0

> <PUBCHEM_COMPONENT_COUNT>
1

> <PUBCHEM_CACTVS_TAUTO_COUNT>
1

> <PUBCHEM_CONFORMER_ID>
014EA3AC00000003

> <PUBCHEM_MMFF94_ENERGY>
82.2984

> <PUBCHEM_FEATURE_SELFOVERLAP>
43.167

> <PUBCHEM_SHAPE_FINGERPRINT>
10165383 225 17107658444741057777
104564 63 18268427923817264889
10764073 3 15803472417926825160
10906281 52 18122072154731227352
11221954 11 13842270392394948854
12035759 4 18045496409183271649
12553582 1 18413394232624805438
12623949 98 17688906397811030627
12788726 201 18195525892149205401
13134695 92 18341044215907224197
13140716 1 18266734688827365544
13149001 5 18120102933378541986
13911987 19 18045241568063798156
15210252 30 17748825228331461965
15238133 3 17899109669403839477
15906896 17 17908421355611179201
16752209 62 18126273160763103855
16945 1 18337109076480896578
17138139 8 17260699060406065565
1813 80 18059862761350731447
18186145 218 18262236745835128907
19591789 44 16320623034799966211
20600515 1 14763806190148425899
21041028 32 18411140212597819393
22112679 90 18200324229401150841
221357 26 18335695053700041277
22620623 9 17914346675502451166
23402539 116 18339645529948433810
23419403 2 14220428583004393145
23558518 356 18117571630373501298
23559900 14 17977399540552216716
23598288 3 18053096225175631934
23598291 2 17917157220507228141
238 59 17617913156528412039
25 1 18048876595874714185
25147074 1 17898860041704678434
266924 87 18410296951636122716
3323516 105 18188211025909830219
3524813 1 17822288045473872463
474 4 17694210471893696913
6438718 38 17985555450721845553
7164475 11 18266743476520051438
7471813 234 18337379462263791254
81228 2 17834085594955238905
9981440 41 14058715875172861556

> <PUBCHEM_SHAPE_MULTIPOLES>
452.07
6.89
4.01
1.54
3.16
6.55
0.39
-5.12
2.84
-0.78
-1.36
0.22
-0.6
-0.63

> <PUBCHEM_SHAPE_SELFOVERLAP>
995.581

> <PUBCHEM_SHAPE_VOLUME>
247.6

> <PUBCHEM_COORDINATE_TYPE>
2
5
10

$$$$


3380
  -OEChem-12311612593D

 35 37  0     0  0  0  0  0  0999 V2000
   -3.4041    0.1925    1.5825 F   0  0  0  0  0  0  0  0  0  0  0  0
   -0.1834    4.4194   -0.0534 O   0  0  0  0  0  0  0  0  0  0  0  0
    3.8952   -3.1393    0.2259 O   0  5  0  0  0  0  0  0  0  0  0  0
    1.8810   -3.6096    0.9611 O   0  0  0  0  0  0  0  0  0  0  0  0
    1.1429    2.5665   -0.5410 N   0  0  0  0  0  0  0  0  0  0  0  0
   -1.3218    1.6064    0.9511 N   0  0  0  0  0  0  0  0  0  0  0  0
    2.7128   -2.8034    0.4782 N   0  3  0  0  0  0  0  0  0  0  0  0
    0.5762    0.2391    0.1902 C   0  0  0  0  0  0  0  0  0  0  0  0
    1.4919    1.1924   -0.3020 C   0  0  0  0  0  0  0  0  0  0  0  0
   -0.8742    0.5404    0.3785 C   0  0  0  0  0  0  0  0  0  0  0  0
    0.9939   -1.0760    0.4644 C   0  0  0  0  0  0  0  0  0  0  0  0
   -0.3537    2.5733    1.4241 C   0  0  0  0  0  0  0  0  0  0  0  0
    2.8021    0.7543   -0.5795 C   0  0  0  0  0  0  0  0  0  0  0  0
    0.1897    3.2717    0.2031 C   0  0  0  0  0  0  0  0  0  0  0  0
   -1.8848   -0.4294   -0.1344 C   0  0  0  0  0  0  0  0  0  0  0  0
    2.3036   -1.4707    0.2098 C   0  0  0  0  0  0  0  0  0  0  0  0
    3.2039   -0.5592   -0.3238 C   0  0  0  0  0  0  0  0  0  0  0  0
    1.8726    3.2904   -1.5819 C   0  0  0  0  0  0  0  0  0  0  0  0
   -3.1122   -0.5511    0.5056 C   0  0  0  0  0  0  0  0  0  0  0  0
   -1.5857   -1.2017   -1.2504 C   0  0  0  0  0  0  0  0  0  0  0  0
   -4.0548   -1.4587    0.0224 C   0  0  0  0  0  0  0  0  0  0  0  0
   -2.5283   -2.1094   -1.7335 C   0  0  0  0  0  0  0  0  0  0  0  0
   -3.7628   -2.2379   -1.0972 C   0  0  0  0  0  0  0  0  0  0  0  0
    0.2802   -1.7824    0.8838 H   0  0  0  0  0  0  0  0  0  0  0  0
    0.4414    2.1423    2.0423 H   0  0  0  0  0  0  0  0  0  0  0  0
   -0.8642    3.3131    2.0506 H   0  0  0  0  0  0  0  0  0  0  0  0
    3.5554    1.4355   -0.9676 H   0  0  0  0  0  0  0  0  0  0  0  0
    4.2339   -0.8274   -0.5453 H   0  0  0  0  0  0  0  0  0  0  0  0
    2.0114    2.6534   -2.4612 H   0  0  0  0  0  0  0  0  0  0  0  0
    2.8383    3.6143   -1.1817 H   0  0  0  0  0  0  0  0  0  0  0  0
    1.3231    4.1824   -1.8971 H   0  0  0  0  0  0  0  0  0  0  0  0
   -0.6499   -1.1039   -1.7925 H   0  0  0  0  0  0  0  0  0  0  0  0
   -5.0160   -1.5583    0.5177 H   0  0  0  0  0  0  0  0  0  0  0  0
   -2.3044   -2.7104   -2.6100 H   0  0  0  0  0  0  0  0  0  0  0  0
   -4.4975   -2.9433   -1.4745 H   0  0  0  0  0  0  0  0  0  0  0  0
  1 19  1  0  0  0  0
  2 14  2  0  0  0  0
  3  7  1  0  0  0  0
  4  7  2  0  0  0  0
  5  9  1  0  0  0  0
  5 14  1  0  0  0  0
  5 18  1  0  0  0  0
  6 10  2  0  0  0  0
  6 12  1  0  0  0  0
  7 16  1  0  0  0  0
  8  9  2  0  0  0  0
  8 10  1  0  0  0  0
  8 11  1  0  0  0  0
  9 13  1  0  0  0  0
 10 15  1  0  0  0  0
 11 16  2  0  0  0  0
 11 24  1  0  0  0  0
 12 14  1  0  0  0  0
 12 25  1  0  0  0  0
 12 26  1  0  0  0  0
 13 17  2  0  0  0  0
 13 27  1  0  0  0  0
 15 19  1  0  0  0  0
 15 20  2  0  0  0  0
 16 17  1  0  0  0  0
 17 28  1  0  0  0  0
 18 29  1  0  0  0  0
 18 30  1  0  0  0  0
 18 31  1  0  0  0  0
 19 21  2  0  0  0  0
 20 22  1  0  0  0  0
 20 32  1  0  0  0  0
 21 23  1  0  0  0  0
 21 33  1  0  0  0  0
 22 23  2  0  0  0  0
 22 34  1  0  0  0  0
 23 35  1  0  0  0  0
M  CHG  2   3  -1   7   1
M  END
> <PUBCHEM_COMPOUND_CID>
3380

> <PUBCHEM_CONFORMER_RMSD>
0.6

> <PUBCHEM_CONFORMER_DIVERSEORDER>
2
1
7
8
4
3
6
5

> <PUBCHEM_MMFF94_PARTIAL_CHARGES>
30
1 -0.19
10 0.28
11 -0.15
12 0.31
13 -0.15
14 0.57
15 0.09
16 0.13
17 -0.15
18 0.3
19 0.19
2 -0.57
20 -0.15
21 -0.15
22 -0.15
23 -0.15
24 0.15
27 0.15
28 0.15
3 -0.52
32 0.15
33 0.15
34 0.15
35 0.15
4 -0.52
5 -0.48
6 -0.7
7 0.91
8 0.09
9 0.12

> <PUBCHEM_EFFECTIVE_ROTOR_COUNT>
2.4

> <PUBCHEM_PHARMACOPHORE_FEATURES>
8
1 2 acceptor
1 3 acceptor
1 3 anion
1 4 acceptor
1 6 acceptor
6 15 19 20 21 22 23 rings
6 8 9 11 13 16 17 rings
7 5 6 8 9 10 12 14 rings

> <PUBCHEM_HEAVY_ATOM_COUNT>
23

> <PUBCHEM_ATOM_DEF_STEREO_COUNT>
0

> <PUBCHEM_ATOM_UDEF_STEREO_COUNT>
0

> <PUBCHEM_BOND_DEF_STEREO_COUNT>
0

> <PUBCHEM_BOND_UDEF_STEREO_COUNT>
0

> <PUBCHEM_ISOTOPIC_ATOM_COUNT>
0

> <PUBCHEM_COMPONENT_COUNT>
1

> <PUBCHEM_CACTVS_TAUTO_COUNT>
1

> <PUBCHEM_CONFORMER_ID>
00000D3400000002

> <PUBCHEM_MMFF94_ENERGY>
94.6262

> <PUBCHEM_FEATURE_SELFOVERLAP>
40.691

> <PUBCHEM_SHAPE_FINGERPRINT>
1100329 8 17977662340709599208
11578080 2 18058425682495036657
12553582 1 18411419492456169842
12730499 353 17758397761873888867
13004483 165 18193826055482731107
13009979 54 17988935469714462643
13140716 1 18269274560534157267
13533116 47 18195241346941408199
13583140 156 18262253217641487843
13681431 1 18261657255704103360
13911987 19 17970648483063770796
13965767 371 17771654285311141537
14787075 74 17914893382106402056
15375462 189 18342463689766462691
16728300 4 15442141840004059458
16945 1 18261673795491258916
19591789 44 17400651917853674578
20291156 8 18413106134755874286
21452121 199 18336808849803695754
21634736 98 17912367820486016807
22112679 90 17916599742231450129
2255824 54 18122902298361453453
23419403 2 17034375797075738208
23598291 2 18128553715446275885
23728640 28 17546434583911190914
238 59 17905042908560963187
257057 1 18340197505885614048
2748010 2 16249435167418415921
34934 24 18412546491969163737
352729 6 17475522672520893952
474 4 17834670878870695045
6442390 28 17183348855140602891
6992083 37 18125169229350184417
7097593 13 18341897415603332111
81228 2 17903332837246164856
90316 7 18271244898525195403
9981440 41 15542615882586915744

> <PUBCHEM_SHAPE_MULTIPOLES>
433.5
6.06
4.79
1.29
6.21
0.92
-0.2
2.09
-1.62
-5.43
0.95
0.5
-0.29
-1.74

> <PUBCHEM_SHAPE_SELFOVERLAP>
955.787

> <PUBCHEM_SHAPE_VOLUME>
232.9

> <PUBCHEM_COORDINATE_TYPE>
2
5
10

$$$$

3033985
  -OEChem-12311612593D

 35 37  0     1  0  0  0  0  0999 V2000
    1.8574   -1.1014   -2.3544 Cl  0  0  0  0  0  0  0  0  0  0  0  0
    3.1027    3.1030   -0.5548 O   0  0  0  0  0  0  0  0  0  0  0  0
   -5.0388    0.5488   -0.0764 O   0  5  0  0  0  0  0  0  0  0  0  0
   -3.9890   -1.0580    0.9891 O   0  0  0  0  0  0  0  0  0  0  0  0
    0.9010    2.5684   -0.8268 N   0  0  0  0  0  0  0  0  0  0  0  0
    2.0253    0.3614    0.8917 N   0  0  0  0  0  0  0  0  0  0  0  0
   -3.9810    0.0087    0.3283 N   0  3  0  0  0  0  0  0  0  0  0  0
   -0.3090    0.6180    0.1363 C   0  0  0  0  0  0  0  0  0  0  0  0
    2.0779    1.7820    1.1847 C   0  0  2  0  0  0  0  0  0  0  0  0
    0.9343   -0.1523    0.4367 C   0  0  0  0  0  0  0  0  0  0  0  0
   -0.2765    1.8484   -0.5385 C   0  0  0  0  0  0  0  0  0  0  0  0
    2.0990    2.5189   -0.1432 C   0  0  0  0  0  0  0  0  0  0  0  0
    0.9510   -1.6189    0.1667 C   0  0  0  0  0  0  0  0  0  0  0  0
   -1.5458    0.0262    0.4413 C   0  0  0  0  0  0  0  0  0  0  0  0
   -1.4797    2.4111   -0.9906 C   0  0  0  0  0  0  0  0  0  0  0  0
    3.3472    2.0397    1.9907 C   0  0  0  0  0  0  0  0  0  0  0  0
   -2.7364    0.6232    0.0288 C   0  0  0  0  0  0  0  0  0  0  0  0
   -2.7027    1.8056   -0.7025 C   0  0  0  0  0  0  0  0  0  0  0  0
    1.3537   -2.1307   -1.0623 C   0  0  0  0  0  0  0  0  0  0  0  0
    0.5495   -2.4713    1.1904 C   0  0  0  0  0  0  0  0  0  0  0  0
    1.3552   -3.5102   -1.2700 C   0  0  0  0  0  0  0  0  0  0  0  0
    0.5510   -3.8506    0.9825 C   0  0  0  0  0  0  0  0  0  0  0  0
    0.9537   -4.3700   -0.2477 C   0  0  0  0  0  0  0  0  0  0  0  0
    1.2257    2.1152    1.7898 H   0  0  0  0  0  0  0  0  0  0  0  0
    0.8415    3.2498   -1.5795 H   0  0  0  0  0  0  0  0  0  0  0  0
   -1.5775   -0.9077    0.9926 H   0  0  0  0  0  0  0  0  0  0  0  0
   -1.4778    3.3475   -1.5449 H   0  0  0  0  0  0  0  0  0  0  0  0
    3.3188    1.4950    2.9406 H   0  0  0  0  0  0  0  0  0  0  0  0
    4.2424    1.7118    1.4496 H   0  0  0  0  0  0  0  0  0  0  0  0
    3.4605    3.1065    2.2110 H   0  0  0  0  0  0  0  0  0  0  0  0
   -3.6079    2.2918   -1.0571 H   0  0  0  0  0  0  0  0  0  0  0  0
    0.2440   -2.0816    2.1580 H   0  0  0  0  0  0  0  0  0  0  0  0
    1.6662   -3.9312   -2.2228 H   0  0  0  0  0  0  0  0  0  0  0  0
    0.2408   -4.5202    1.7793 H   0  0  0  0  0  0  0  0  0  0  0  0
    0.9552   -5.4440   -0.4092 H   0  0  0  0  0  0  0  0  0  0  0  0
  1 19  1  0  0  0  0
  2 12  2  0  0  0  0
  3  7  1  0  0  0  0
  4  7  2  0  0  0  0
  5 11  1  0  0  0  0
  5 12  1  0  0  0  0
  5 25  1  0  0  0  0
  6  9  1  0  0  0  0
  6 10  2  0  0  0  0
  7 17  1  0  0  0  0
  8 10  1  0  0  0  0
  8 11  2  0  0  0  0
  8 14  1  0  0  0  0
  9 12  1  0  0  0  0
  9 16  1  0  0  0  0
  9 24  1  0  0  0  0
 10 13  1  0  0  0  0
 11 15  1  0  0  0  0
 13 19  1  0  0  0  0
 13 20  2  0  0  0  0
 14 17  2  0  0  0  0
 14 26  1  0  0  0  0
 15 18  2  0  0  0  0
 15 27  1  0  0  0  0
 16 28  1  0  0  0  0
 16 29  1  0  0  0  0
 16 30  1  0  0  0  0
 17 18  1  0  0  0  0
 18 31  1  0  0  0  0
 19 21  2  0  0  0  0
 20 22  1  0  0  0  0
 20 32  1  0  0  0  0
 21 23  1  0  0  0  0
 21 33  1  0  0  0  0
 22 23  2  0  0  0  0
 22 34  1  0  0  0  0
 23 35  1  0  0  0  0
M  CHG  2   3  -1   7   1
M  END
> <PUBCHEM_COMPOUND_CID>
3033985

> <PUBCHEM_CONFORMER_RMSD>
0.6

> <PUBCHEM_CONFORMER_DIVERSEORDER>
1
5
7
6
4
8
2
3

> <PUBCHEM_MMFF94_PARTIAL_CHARGES>
30
1 -0.18
10 0.28
11 0.12
12 0.57
13 0.09
14 -0.15
15 -0.15
17 0.13
18 -0.15
19 0.18
2 -0.57
20 -0.15
21 -0.15
22 -0.15
23 -0.15
25 0.37
26 0.15
27 0.15
3 -0.52
31 0.15
32 0.15
33 0.15
34 0.15
35 0.15
4 -0.52
5 -0.55
6 -0.7
7 0.91
8 0.09
9 0.31

> <PUBCHEM_EFFECTIVE_ROTOR_COUNT>
2.4

> <PUBCHEM_PHARMACOPHORE_FEATURES>
9
1 2 acceptor
1 3 acceptor
1 3 anion
1 4 acceptor
1 5 donor
1 6 acceptor
6 13 19 20 21 22 23 rings
6 8 11 14 15 17 18 rings
7 5 6 8 9 10 11 12 rings

> <PUBCHEM_HEAVY_ATOM_COUNT>
23

> <PUBCHEM_ATOM_DEF_STEREO_COUNT>
1

> <PUBCHEM_ATOM_UDEF_STEREO_COUNT>
0

> <PUBCHEM_BOND_DEF_STEREO_COUNT>
0

> <PUBCHEM_BOND_UDEF_STEREO_COUNT>
0

> <PUBCHEM_ISOTOPIC_ATOM_COUNT>
0

> <PUBCHEM_COMPONENT_COUNT>
1

> <PUBCHEM_CACTVS_TAUTO_COUNT>
3

> <PUBCHEM_CONFORMER_ID>
002E4B8100000001

> <PUBCHEM_MMFF94_ENERGY>
91.1553

> <PUBCHEM_FEATURE_SELFOVERLAP>
45.764

> <PUBCHEM_SHAPE_FINGERPRINT>
104564 63 17257937520597404066
11578080 2 16592511528826475406
12035758 1 18341059600902045970
12363563 72 17192891018241254855
12553582 1 17617944625896428651
12788726 201 17255678019991753458
12839892 36 18265597948596705803
13140716 1 18339912809583211435
13533116 47 18271812268770312153
13681431 1 18054219930380404064
14115302 16 17108758544425399559
14787075 74 18266187119547788030
14863182 85 18263656215541695285
15338160 23 17046517914546028192
15906896 17 17762892564975493114
17138139 8 17123350614800382711
19591789 44 18408886265199953938
20028762 73 17838623610694167863
20775438 99 17758072023201343845
20905425 154 17908137686275094860
21452121 199 17902231113663005310
21524375 3 18268698584076815544
21731228 192 18197761388092812520
22182313 1 18042395830208111285
22620623 9 17402640909093499068
22956985 138 18262505997103534650
23184049 29 17687738338013670843
23419403 2 17050548577932764302
23557571 272 17046253507848036658
23559900 14 18190174594763202829
23598288 3 17689148337681326768
25147074 1 17321247349103026008
2748010 2 18046370748787532291
5845 1 13047601455637703688
59554788 248 18189595280683982925
6438718 38 17622443165909698244
6669772 16 18272082817170685246
7364860 26 18342173319695957249
81228 2 17404271475893523968
84936 31 18059845126167521597

> <PUBCHEM_SHAPE_MULTIPOLES>
442.65
5.5
5.13
1.57
2.28
3.59
0.29
-6.89
0.96
-0.5
-1.65
-1.09
0.54
1.04

> <PUBCHEM_SHAPE_SELFOVERLAP>
962.626

> <PUBCHEM_SHAPE_VOLUME>
240.9

> <PUBCHEM_COORDINATE_TYPE>
2
5
10

$$$$

4616
  -OEChem-12311613003D

 31 33  0     1  0  0  0  0  0999 V2000
   -0.1439    4.4764   -1.0800 Cl  0  0  0  0  0  0  0  0  0  0  0  0
    2.0677   -3.1800   -1.3667 O   0  0  0  0  0  0  0  0  0  0  0  0
    2.9712   -2.6678    1.0456 O   0  0  0  0  0  0  0  0  0  0  0  0
    2.4790   -0.4398    0.9569 N   0  0  0  0  0  0  0  0  0  0  0  0
    0.2518   -1.7970   -0.5518 N   0  0  0  0  0  0  0  0  0  0  0  0
    0.5409    0.6254   -0.1840 C   0  0  0  0  0  0  0  0  0  0  0  0
   -0.2462   -0.6403   -0.2772 C   0  0  0  0  0  0  0  0  0  0  0  0
    1.7747    0.6859    0.4829 C   0  0  0  0  0  0  0  0  0  0  0  0
   -1.7114   -0.5938   -0.0029 C   0  0  0  0  0  0  0  0  0  0  0  0
    1.6704   -1.9165   -0.8383 C   0  0  1  0  0  0  0  0  0  0  0  0
   -0.0366    1.8043   -0.6836 C   0  0  0  0  0  0  0  0  0  0  0  0
    2.3563    1.9383    0.7308 C   0  0  0  0  0  0  0  0  0  0  0  0
    2.4037   -1.7318    0.4791 C   0  0  0  0  0  0  0  0  0  0  0  0
    0.5789    3.0375   -0.4725 C   0  0  0  0  0  0  0  0  0  0  0  0
    1.7655    3.1065    0.2493 C   0  0  0  0  0  0  0  0  0  0  0  0
   -2.2128    0.3472    0.8874 C   0  0  0  0  0  0  0  0  0  0  0  0
   -2.5575   -1.4916   -0.6414 C   0  0  0  0  0  0  0  0  0  0  0  0
   -3.5832    0.3910    1.1439 C   0  0  0  0  0  0  0  0  0  0  0  0
   -3.9280   -1.4476   -0.3849 C   0  0  0  0  0  0  0  0  0  0  0  0
   -4.4407   -0.5063    0.5077 C   0  0  0  0  0  0  0  0  0  0  0  0
    1.9970   -1.1685   -1.5703 H   0  0  0  0  0  0  0  0  0  0  0  0
    3.1643   -0.2697    1.6887 H   0  0  0  0  0  0  0  0  0  0  0  0
   -0.9713    1.7688   -1.2398 H   0  0  0  0  0  0  0  0  0  0  0  0
    3.2959    2.0136    1.2741 H   0  0  0  0  0  0  0  0  0  0  0  0
    2.2495    4.0614    0.4373 H   0  0  0  0  0  0  0  0  0  0  0  0
   -1.5735    1.0342    1.4337 H   0  0  0  0  0  0  0  0  0  0  0  0
   -2.1826   -2.2273   -1.3475 H   0  0  0  0  0  0  0  0  0  0  0  0
   -3.9817    1.1175    1.8460 H   0  0  0  0  0  0  0  0  0  0  0  0
   -4.5962   -2.1451   -0.8814 H   0  0  0  0  0  0  0  0  0  0  0  0
   -5.5075   -0.4732    0.7086 H   0  0  0  0  0  0  0  0  0  0  0  0
    3.0132   -3.1203   -1.5871 H   0  0  0  0  0  0  0  0  0  0  0  0
  1 14  1  0  0  0  0
  2 10  1  0  0  0  0
  2 31  1  0  0  0  0
  3 13  2  0  0  0  0
  4  8  1  0  0  0  0
  4 13  1  0  0  0  0
  4 22  1  0  0  0  0
  5  7  2  0  0  0  0
  5 10  1  0  0  0  0
  6  7  1  0  0  0  0
  6  8  2  0  0  0  0
  6 11  1  0  0  0  0
  7  9  1  0  0  0  0
  8 12  1  0  0  0  0
  9 16  2  0  0  0  0
  9 17  1  0  0  0  0
 10 13  1  0  0  0  0
 10 21  1  0  0  0  0
 11 14  2  0  0  0  0
 11 23  1  0  0  0  0
 12 15  2  0  0  0  0
 12 24  1  0  0  0  0
 14 15  1  0  0  0  0
 15 25  1  0  0  0  0
 16 18  1  0  0  0  0
 16 26  1  0  0  0  0
 17 19  2  0  0  0  0
 17 27  1  0  0  0  0
 18 20  2  0  0  0  0
 18 28  1  0  0  0  0
 19 20  1  0  0  0  0
 19 29  1  0  0  0  0
 20 30  1  0  0  0  0
M  END
> <PUBCHEM_COMPOUND_CID>
4616

> <PUBCHEM_CONFORMER_RMSD>
0.6

> <PUBCHEM_CONFORMER_DIVERSEORDER>
1
2

> <PUBCHEM_MMFF94_PARTIAL_CHARGES>
30
1 -0.18
10 0.59
11 -0.15
12 -0.15
13 0.57
14 0.18
15 -0.15
16 -0.15
17 -0.15
18 -0.15
19 -0.15
2 -0.68
20 -0.15
22 0.37
23 0.15
24 0.15
25 0.15
26 0.15
27 0.15
28 0.15
29 0.15
3 -0.57
30 0.15
31 0.4
4 -0.55
5 -0.7
6 0.09
7 0.28
8 0.12
9 0.09

> <PUBCHEM_EFFECTIVE_ROTOR_COUNT>
1.4

> <PUBCHEM_PHARMACOPHORE_FEATURES>
8
1 2 acceptor
1 2 donor
1 3 acceptor
1 4 donor
1 5 acceptor
6 6 8 11 12 14 15 rings
6 9 16 17 18 19 20 rings
7 4 5 6 7 8 10 13 rings

> <PUBCHEM_HEAVY_ATOM_COUNT>
20

> <PUBCHEM_ATOM_DEF_STEREO_COUNT>
0

> <PUBCHEM_ATOM_UDEF_STEREO_COUNT>
1

> <PUBCHEM_BOND_DEF_STEREO_COUNT>
0

> <PUBCHEM_BOND_UDEF_STEREO_COUNT>
0

> <PUBCHEM_ISOTOPIC_ATOM_COUNT>
0

> <PUBCHEM_COMPONENT_COUNT>
1

> <PUBCHEM_CACTVS_TAUTO_COUNT>
3

> <PUBCHEM_CONFORMER_ID>
0000120800000001

> <PUBCHEM_MMFF94_ENERGY>
73.6694

> <PUBCHEM_FEATURE_SELFOVERLAP>
40.646

> <PUBCHEM_SHAPE_FINGERPRINT>
10090160 65 17834103531166213911
10382601 240 18409732897785630416
108634 29 17689984648927594085
11578080 2 17386555856852619100
11640471 11 17914627282959376833
116883 192 18194114114765937661
12035758 1 17906731402108162865
12553582 1 18338516335469430598
12716301 132 17615112292258659240
12788726 201 17901403194450538498
12954195 1 16172582191103537820
13134695 92 18261103080469036277
13140716 1 17905325478617327369
13681431 1 18263946413048357756
14178342 30 18123458642734399083
14790565 3 18192155017232658636
14844126 61 17541638540193154218
15420108 30 18129648828985199698
15490181 8 18051139390772866271
16945 1 18116986891449626329
17357779 13 18124583185500160965
17492 89 18342742948915173087
1813 80 18339372846305567310
19591789 44 18337951320127142524
20559304 39 18341338880733554641
20645476 183 17400646411673998237
20739085 24 18409728508260683112
21452121 99 17398667900982271842
21524375 3 17836369619892792805
22182313 1 17626655008883944478
2255824 54 18194128631623379797
23419403 2 17897416494163083180
23559900 14 17917438613948528383
2748010 2 17838884946294212686
3060560 45 18121217838311570868
3091708 16 9358432184093228954
352729 6 17475795828108704174
4409770 3 17401498047911911111
474 4 18120936372014348473
5283268 108 18265904553284841785
5312544 6 17689149432792544199
6992083 37 18127706928436923873
7097593 13 18341617022989769035
7364860 26 18270688669915861359
81228 2 17831870048754582001
8272917 22 18338519763200933783
90316 7 18122061996763748451

> <PUBCHEM_SHAPE_MULTIPOLES>
391.76
5.76
4.51
1.11
7.47
1.73
0.01
-0.46
-1.49
-4.84
1.55
-0.08
-0.11
-0.64

> <PUBCHEM_SHAPE_SELFOVERLAP>
854.282

> <PUBCHEM_SHAPE_VOLUME>
211.6

> <PUBCHEM_COORDINATE_TYPE>
2
5
10

$$$$
3058221
  -OEChem-12311613003D

 33 35  0     1  0  0  0  0  0999 V2000
    3.0135   -1.4085   -1.3778 F   0  0  0  0  0  0  0  0  0  0  0  0
    2.8665    2.8133   -1.4659 O   0  0  0  0  0  0  0  0  0  0  0  0
    2.2596    3.7113    0.9265 O   0  0  0  0  0  0  0  0  0  0  0  0
   -5.0674   -0.4954   -0.3654 O   0  5  0  0  0  0  0  0  0  0  0  0
   -3.5867   -1.8705   -1.2232 O   0  0  0  0  0  0  0  0  0  0  0  0
    0.1922    2.7424    0.9673 N   0  0  0  0  0  0  0  0  0  0  0  0
    1.9474    0.7863   -0.5061 N   0  0  0  0  0  0  0  0  0  0  0  0
   -3.8795   -0.8109   -0.6182 N   0  3  0  0  0  0  0  0  0  0  0  0
   -0.4637    0.5610   -0.0345 C   0  0  0  0  0  0  0  0  0  0  0  0
    0.9395    0.0642   -0.1543 C   0  0  0  0  0  0  0  0  0  0  0  0
   -0.7685    1.7860    0.5797 C   0  0  0  0  0  0  0  0  0  0  0  0
    1.2260   -1.3593    0.1859 C   0  0  0  0  0  0  0  0  0  0  0  0
   -1.5050   -0.2847   -0.4507 C   0  0  0  0  0  0  0  0  0  0  0  0
    1.7418    2.1796   -0.8600 C   0  0  1  0  0  0  0  0  0  0  0  0
   -2.1077    2.0939    0.8622 C   0  0  0  0  0  0  0  0  0  0  0  0
   -2.8344    0.0583   -0.2074 C   0  0  0  0  0  0  0  0  0  0  0  0
    1.4504    2.9244    0.4314 C   0  0  0  0  0  0  0  0  0  0  0  0
   -3.1350    1.2384    0.4642 C   0  0  0  0  0  0  0  0  0  0  0  0
    2.2630   -2.0263   -0.4542 C   0  0  0  0  0  0  0  0  0  0  0  0
    0.4501   -2.0020    1.1426 C   0  0  0  0  0  0  0  0  0  0  0  0
    2.5282   -3.3574   -0.1326 C   0  0  0  0  0  0  0  0  0  0  0  0
    0.7153   -3.3332    1.4641 C   0  0  0  0  0  0  0  0  0  0  0  0
    1.7544   -4.0109    0.8265 C   0  0  0  0  0  0  0  0  0  0  0  0
   -1.2630   -1.2114   -0.9669 H   0  0  0  0  0  0  0  0  0  0  0  0
    0.9134    2.2962   -1.5686 H   0  0  0  0  0  0  0  0  0  0  0  0
   -0.0965    3.4125    1.6757 H   0  0  0  0  0  0  0  0  0  0  0  0
   -2.3666    3.0222    1.3671 H   0  0  0  0  0  0  0  0  0  0  0  0
   -4.1574    1.5316    0.6879 H   0  0  0  0  0  0  0  0  0  0  0  0
   -0.3390   -1.4970    1.6916 H   0  0  0  0  0  0  0  0  0  0  0  0
    3.3377   -3.8847   -0.6287 H   0  0  0  0  0  0  0  0  0  0  0  0
    0.1193   -3.8393    2.2178 H   0  0  0  0  0  0  0  0  0  0  0  0
    1.9624   -5.0466    1.0785 H   0  0  0  0  0  0  0  0  0  0  0  0
    2.5924    3.7101   -1.7244 H   0  0  0  0  0  0  0  0  0  0  0  0
  1 19  1  0  0  0  0
  2 14  1  0  0  0  0
  2 33  1  0  0  0  0
  3 17  2  0  0  0  0
  4  8  1  0  0  0  0
  5  8  2  0  0  0  0
  6 11  1  0  0  0  0
  6 17  1  0  0  0  0
  6 26  1  0  0  0  0
  7 10  2  0  0  0  0
  7 14  1  0  0  0  0
  8 16  1  0  0  0  0
  9 10  1  0  0  0  0
  9 11  2  0  0  0  0
  9 13  1  0  0  0  0
 10 12  1  0  0  0  0
 11 15  1  0  0  0  0
 12 19  1  0  0  0  0
 12 20  2  0  0  0  0
 13 16  2  0  0  0  0
 13 24  1  0  0  0  0
 14 17  1  0  0  0  0
 14 25  1  0  0  0  0
 15 18  2  0  0  0  0
 15 27  1  0  0  0  0
 16 18  1  0  0  0  0
 18 28  1  0  0  0  0
 19 21  2  0  0  0  0
 20 22  1  0  0  0  0
 20 29  1  0  0  0  0
 21 23  1  0  0  0  0
 21 30  1  0  0  0  0
 22 23  2  0  0  0  0
 22 31  1  0  0  0  0
 23 32  1  0  0  0  0
M  CHG  2   4  -1   8   1
M  END
> <PUBCHEM_COMPOUND_CID>
3058221

> <PUBCHEM_CONFORMER_RMSD>
0.6

> <PUBCHEM_CONFORMER_DIVERSEORDER>
1
5
7
3
8
4
2
6

> <PUBCHEM_MMFF94_PARTIAL_CHARGES>
32
1 -0.19
10 0.28
11 0.12
12 0.09
13 -0.15
14 0.59
15 -0.15
16 0.13
17 0.57
18 -0.15
19 0.19
2 -0.68
20 -0.15
21 -0.15
22 -0.15
23 -0.15
24 0.15
26 0.37
27 0.15
28 0.15
29 0.15
3 -0.57
30 0.15
31 0.15
32 0.15
33 0.4
4 -0.52
5 -0.52
6 -0.55
7 -0.7
8 0.91
9 0.09

> <PUBCHEM_EFFECTIVE_ROTOR_COUNT>
2.4

> <PUBCHEM_PHARMACOPHORE_FEATURES>
11
1 2 acceptor
1 2 donor
1 3 acceptor
1 4 acceptor
1 4 anion
1 5 acceptor
1 6 donor
1 7 acceptor
6 12 19 20 21 22 23 rings
6 9 11 13 15 16 18 rings
7 6 7 9 10 11 14 17 rings

> <PUBCHEM_HEAVY_ATOM_COUNT>
23

> <PUBCHEM_ATOM_DEF_STEREO_COUNT>
0

> <PUBCHEM_ATOM_UDEF_STEREO_COUNT>
1

> <PUBCHEM_BOND_DEF_STEREO_COUNT>
0

> <PUBCHEM_BOND_UDEF_STEREO_COUNT>
0

> <PUBCHEM_ISOTOPIC_ATOM_COUNT>
0

> <PUBCHEM_COMPONENT_COUNT>
1

> <PUBCHEM_CACTVS_TAUTO_COUNT>
3

> <PUBCHEM_CONFORMER_ID>
002EAA2D00000001

> <PUBCHEM_MMFF94_ENERGY>
85.789

> <PUBCHEM_FEATURE_SELFOVERLAP>
55.953

> <PUBCHEM_SHAPE_FINGERPRINT>
108634 29 17260183818431396014
11578080 2 17825652366656370316
12035758 1 17042608089703856875
12553582 1 18050285869265772019
12716301 132 17330260088284687344
12788726 201 17545331778138301490
13004483 165 17469879987362904545
13140716 1 18265608982051567747
13931106 250 16964336592705607646
14081887 123 17762598609082446202
14787075 74 18336553720636530414
15042514 8 17547010724194182387
15375462 189 18046638806381375307
16945 1 18129669741070544917
19591789 44 17834399299345692611
20291156 8 18122343480509813035
20567600 347 18047456001276781939
21421861 104 18410849958866029849
21452121 199 18267851805404501843
21452121 99 17544472415354456152
21634736 98 18411985732491534303
22112679 90 17979640026350496282
2255824 54 18335423456320228479
22907989 373 16747343050963122565
23419403 2 17101205157578408512
23559900 14 18341319012457423339
23598288 3 17325222731591097339
238 59 18261683652605097459
257057 1 18122054308650891129
2748010 2 17117493601873494796
3091708 16 9576285050012658403
34934 24 18050006593079760048
352729 6 17762345012432621496
4409770 3 17399243439405716646
6992083 37 17765160462394974441
70251023 43 18413112736679874835
7097593 13 18267869385048347233
7364860 26 18341890809542463941
7471813 234 18199447923192505199
81228 2 17401187985574732448
90316 7 17691685589147098353
90525 40 16678944012962733474

> <PUBCHEM_SHAPE_MULTIPOLES>
427.64
5.85
5.07
1.19
0.03
3.78
0
-6.56
0.25
0.36
0.16
-0.29
0.06
-2.02

> <PUBCHEM_SHAPE_SELFOVERLAP>
947.204

> <PUBCHEM_SHAPE_VOLUME>
226.6

> <PUBCHEM_COORDINATE_TYPE>
2
5
10

$$$$
20317278
  -OEChem-12311613013D

 37 40  0     0  0  0  0  0  0999 V2000
   -1.4850    4.7455   -0.0066 O   0  5  0  0  0  0  0  0  0  0  0  0
   -2.8642    3.2086    0.7381 O   0  0  0  0  0  0  0  0  0  0  0  0
    2.3934   -0.2534   -0.0382 N   0  0  0  0  0  0  0  0  0  0  0  0
    0.2815   -2.0670    1.2145 N   0  0  0  0  0  0  0  0  0  0  0  0
    3.6729   -1.9792    0.4512 N   0  0  0  0  0  0  0  0  0  0  0  0
    4.3189   -1.2207   -0.4945 N   0  0  0  0  0  0  0  0  0  0  0  0
   -1.7362    3.5589    0.3145 N   0  3  0  0  0  0  0  0  0  0  0  0
    1.3144    0.6577   -0.0128 C   0  0  0  0  0  0  0  0  0  0  0  0
    0.0248    0.2709    0.4021 C   0  0  0  0  0  0  0  0  0  0  0  0
    2.5365   -1.3807    0.7389 C   0  0  0  0  0  0  0  0  0  0  0  0
   -0.3953   -1.1572    0.5995 C   0  0  0  0  0  0  0  0  0  0  0  0
    1.5711   -1.7489    1.7970 C   0  0  0  0  0  0  0  0  0  0  0  0
    3.5587   -0.1821   -0.7567 C   0  0  0  0  0  0  0  0  0  0  0  0
    1.5563    1.9918   -0.3789 C   0  0  0  0  0  0  0  0  0  0  0  0
   -0.9735    1.2531    0.5266 C   0  0  0  0  0  0  0  0  0  0  0  0
   -1.6977   -1.5946    0.0141 C   0  0  0  0  0  0  0  0  0  0  0  0
   -0.7124    2.5821    0.1946 C   0  0  0  0  0  0  0  0  0  0  0  0
    0.5450    2.9471   -0.2728 C   0  0  0  0  0  0  0  0  0  0  0  0
    3.8771    0.7949   -1.8188 C   0  0  0  0  0  0  0  0  0  0  0  0
   -1.9077   -1.5084   -1.3622 C   0  0  0  0  0  0  0  0  0  0  0  0
   -2.7041   -2.0901    0.8434 C   0  0  0  0  0  0  0  0  0  0  0  0
   -3.1240   -1.9171   -1.9093 C   0  0  0  0  0  0  0  0  0  0  0  0
   -3.9203   -2.4990    0.2963 C   0  0  0  0  0  0  0  0  0  0  0  0
   -4.1302   -2.4124   -1.0801 C   0  0  0  0  0  0  0  0  0  0  0  0
    1.9380   -2.6353    2.3266 H   0  0  0  0  0  0  0  0  0  0  0  0
    1.4841   -0.9577    2.5516 H   0  0  0  0  0  0  0  0  0  0  0  0
    2.5307    2.3797   -0.6382 H   0  0  0  0  0  0  0  0  0  0  0  0
   -1.9627    0.9602    0.8722 H   0  0  0  0  0  0  0  0  0  0  0  0
    0.7861    3.9746   -0.5344 H   0  0  0  0  0  0  0  0  0  0  0  0
    3.0104    1.0538   -2.4332 H   0  0  0  0  0  0  0  0  0  0  0  0
    4.3458    1.6935   -1.4079 H   0  0  0  0  0  0  0  0  0  0  0  0
    4.6105    0.3556   -2.5061 H   0  0  0  0  0  0  0  0  0  0  0  0
   -1.1309   -1.1297   -2.0214 H   0  0  0  0  0  0  0  0  0  0  0  0
   -2.5546   -2.1593    1.9177 H   0  0  0  0  0  0  0  0  0  0  0  0
   -3.2871   -1.8508   -2.9810 H   0  0  0  0  0  0  0  0  0  0  0  0
   -4.7042   -2.8839    0.9418 H   0  0  0  0  0  0  0  0  0  0  0  0
   -5.0771   -2.7308   -1.5059 H   0  0  0  0  0  0  0  0  0  0  0  0
  1  7  1  0  0  0  0
  2  7  2  0  0  0  0
  3  8  1  0  0  0  0
  3 10  1  0  0  0  0
  3 13  1  0  0  0  0
  4 11  2  0  0  0  0
  4 12  1  0  0  0  0
  5  6  1  0  0  0  0
  5 10  2  0  0  0  0
  6 13  2  0  0  0  0
  7 17  1  0  0  0  0
  8  9  2  0  0  0  0
  8 14  1  0  0  0  0
  9 11  1  0  0  0  0
  9 15  1  0  0  0  0
 10 12  1  0  0  0  0
 11 16  1  0  0  0  0
 12 25  1  0  0  0  0
 12 26  1  0  0  0  0
 13 19  1  0  0  0  0
 14 18  2  0  0  0  0
 14 27  1  0  0  0  0
 15 17  2  0  0  0  0
 15 28  1  0  0  0  0
 16 20  2  0  0  0  0
 16 21  1  0  0  0  0
 17 18  1  0  0  0  0
 18 29  1  0  0  0  0
 19 30  1  0  0  0  0
 19 31  1  0  0  0  0
 19 32  1  0  0  0  0
 20 22  1  0  0  0  0
 20 33  1  0  0  0  0
 21 23  2  0  0  0  0
 21 34  1  0  0  0  0
 22 24  2  0  0  0  0
 22 35  1  0  0  0  0
 23 24  1  0  0  0  0
 23 36  1  0  0  0  0
 24 37  1  0  0  0  0
M  CHG  2   1  -1   7   1
M  END
> <PUBCHEM_COMPOUND_CID>
20317278

> <PUBCHEM_CONFORMER_RMSD>
0.6

> <PUBCHEM_CONFORMER_DIVERSEORDER>
2
1

> <PUBCHEM_MMFF94_PARTIAL_CHARGES>
32
1 -0.52
10 0.01
11 0.28
12 0.43
13 0.01
14 -0.15
15 -0.15
16 0.09
17 0.13
18 -0.15
19 0.18
2 -0.52
20 -0.15
21 -0.15
22 -0.15
23 -0.15
24 -0.15
27 0.15
28 0.15
29 0.15
3 0.33
33 0.15
34 0.15
35 0.15
36 0.15
37 0.15
4 -0.7
5 -0.34
6 -0.34
7 0.91
8 -0.02
9 0.09

> <PUBCHEM_EFFECTIVE_ROTOR_COUNT>
2.2

> <PUBCHEM_PHARMACOPHORE_FEATURES>
10
1 1 acceptor
1 1 anion
1 2 acceptor
1 4 acceptor
3 3 5 10 cation
3 3 6 13 cation
5 3 5 6 10 13 rings
6 16 20 21 22 23 24 rings
6 8 9 14 15 17 18 rings
7 3 4 8 9 10 11 12 rings

> <PUBCHEM_HEAVY_ATOM_COUNT>
24

> <PUBCHEM_ATOM_DEF_STEREO_COUNT>
0

> <PUBCHEM_ATOM_UDEF_STEREO_COUNT>
0

> <PUBCHEM_BOND_DEF_STEREO_COUNT>
0

> <PUBCHEM_BOND_UDEF_STEREO_COUNT>
0

> <PUBCHEM_ISOTOPIC_ATOM_COUNT>
0

> <PUBCHEM_COMPONENT_COUNT>
1

> <PUBCHEM_CACTVS_TAUTO_COUNT>
1

> <PUBCHEM_CONFORMER_ID>
0136045E00000002

> <PUBCHEM_MMFF94_ENERGY>
93.56

> <PUBCHEM_FEATURE_SELFOVERLAP>
53.4

> <PUBCHEM_SHAPE_FINGERPRINT>
104564 63 18411980230596047943
10906281 52 17760938732887431496
1100329 8 18410009901891659937
11578080 2 17632284700968604016
116883 192 18342740706303129327
11828532 37 14257927591666257757
12035759 4 18261946341315370343
12293681 160 17971200459170002288
12403259 327 14548195292810072695
12553582 1 18339648957026439222
12730499 353 17398104341392102907
12788726 201 18338229358844939539
13134695 92 18195238038855767151
13140716 1 18410003351770848905
13540713 5 18115313263897834906
13681431 1 18053368088031105089
13757389 114 17979377273848853820
13911987 19 17683542984548178364
14178342 30 18264191540334079746
14866123 147 17977659814499352234
15131766 46 15650763524836567462
15210252 30 17823130297309114141
15906896 17 18195524796800383523
16752209 62 18269825420323523047
17138139 8 17766515177196877773
1813 80 18058459848912143319
19591789 44 17546446674481245843
21041028 32 18410296956014641563
221357 26 18263633130319768071
22620623 9 18129675092863384342
23419403 2 17105310768640936266
23558518 356 18260556576367650882
23559900 14 17113557355064199420
238 59 17186131701869412719
25 1 17615684472186456925
25147074 1 18041563517080264762
266924 87 18193560188623675476
3060560 45 17112975163123346382
3323516 105 17899414465573374219
474 4 17332518485589898113
59025328 239 17628599176810690743
6438718 38 18201162044555818995
7164475 11 18410857638125233830
7471813 234 18337658802678763622
81228 2 18049692197363498235

> <PUBCHEM_SHAPE_MULTIPOLES>
457.27
6.85
4.72
1.4
1.88
7.64
0.35
-6.15
3.04
0.87
-1.08
0.14
-0.77
-1.09

> <PUBCHEM_SHAPE_SELFOVERLAP>
1021.011

> <PUBCHEM_SHAPE_VOLUME>
243

> <PUBCHEM_COORDINATE_TYPE>
2
5
10

$$$$

40113
  -OEChem-12311613013D

 30 32  0     0  0  0  0  0  0999 V2000
   -0.9007   -4.5930    0.2977 Br  0  0  0  0  0  0  0  0  0  0  0  0
    1.2790    1.4730   -2.1648 Cl  0  0  0  0  0  0  0  0  0  0  0  0
   -2.4889    3.4900   -0.0900 O   0  0  0  0  0  0  0  0  0  0  0  0
   -2.4788    1.2431   -0.5303 N   0  0  0  0  0  0  0  0  0  0  0  0
   -0.0170    1.7519    1.1431 N   0  0  0  0  0  0  0  0  0  0  0  0
   -0.8060   -0.4193    0.2700 C   0  0  0  0  0  0  0  0  0  0  0  0
    0.2290    0.6050    0.6076 C   0  0  0  0  0  0  0  0  0  0  0  0
   -2.0223   -0.0784   -0.3442 C   0  0  0  0  0  0  0  0  0  0  0  0
    1.6547    0.3167    0.2780 C   0  0  0  0  0  0  0  0  0  0  0  0
   -0.4895   -1.7723    0.4759 C   0  0  0  0  0  0  0  0  0  0  0  0
   -1.3809    2.0861    1.4909 C   0  0  0  0  0  0  0  0  0  0  0  0
   -2.8490   -1.0996   -0.8366 C   0  0  0  0  0  0  0  0  0  0  0  0
   -2.1372    2.3498    0.2161 C   0  0  0  0  0  0  0  0  0  0  0  0
   -1.3453   -2.7764    0.0247 C   0  0  0  0  0  0  0  0  0  0  0  0
   -2.5158   -2.4405   -0.6469 C   0  0  0  0  0  0  0  0  0  0  0  0
    2.2076    0.6748   -0.9469 C   0  0  0  0  0  0  0  0  0  0  0  0
    2.4254   -0.3261    1.2413 C   0  0  0  0  0  0  0  0  0  0  0  0
    3.5465    0.3869   -1.2117 C   0  0  0  0  0  0  0  0  0  0  0  0
    3.7643   -0.6140    0.9763 C   0  0  0  0  0  0  0  0  0  0  0  0
    4.3248   -0.2576   -0.2501 C   0  0  0  0  0  0  0  0  0  0  0  0
    0.4283   -2.0631    0.9773 H   0  0  0  0  0  0  0  0  0  0  0  0
   -3.1839    1.3830   -1.2497 H   0  0  0  0  0  0  0  0  0  0  0  0
   -1.3819    3.0027    2.0907 H   0  0  0  0  0  0  0  0  0  0  0  0
   -1.8730    1.3167    2.0968 H   0  0  0  0  0  0  0  0  0  0  0  0
   -3.7806   -0.8598   -1.3449 H   0  0  0  0  0  0  0  0  0  0  0  0
   -3.1871   -3.2093   -1.0206 H   0  0  0  0  0  0  0  0  0  0  0  0
    2.0051   -0.6001    2.2054 H   0  0  0  0  0  0  0  0  0  0  0  0
    3.9988    0.6579   -2.1625 H   0  0  0  0  0  0  0  0  0  0  0  0
    4.3710   -1.1137    1.7259 H   0  0  0  0  0  0  0  0  0  0  0  0
    5.3675   -0.4815   -0.4560 H   0  0  0  0  0  0  0  0  0  0  0  0
  1 14  1  0  0  0  0
  2 16  1  0  0  0  0
  3 13  2  0  0  0  0
  4  8  1  0  0  0  0
  4 13  1  0  0  0  0
  4 22  1  0  0  0  0
  5  7  2  0  0  0  0
  5 11  1  0  0  0  0
  6  7  1  0  0  0  0
  6  8  2  0  0  0  0
  6 10  1  0  0  0  0
  7  9  1  0  0  0  0
  8 12  1  0  0  0  0
  9 16  1  0  0  0  0
  9 17  2  0  0  0  0
 10 14  2  0  0  0  0
 10 21  1  0  0  0  0
 11 13  1  0  0  0  0
 11 23  1  0  0  0  0
 11 24  1  0  0  0  0
 12 15  2  0  0  0  0
 12 25  1  0  0  0  0
 14 15  1  0  0  0  0
 15 26  1  0  0  0  0
 16 18  2  0  0  0  0
 17 19  1  0  0  0  0
 17 27  1  0  0  0  0
 18 20  1  0  0  0  0
 18 28  1  0  0  0  0
 19 20  2  0  0  0  0
 19 29  1  0  0  0  0
 20 30  1  0  0  0  0
M  END
> <PUBCHEM_COMPOUND_CID>
40113

> <PUBCHEM_CONFORMER_RMSD>
0.6

> <PUBCHEM_CONFORMER_DIVERSEORDER>
1
4
5
8
6
7
3
2

> <PUBCHEM_MMFF94_PARTIAL_CHARGES>
28
1 -0.11
10 -0.15
11 0.31
12 -0.15
13 0.57
14 0.11
15 -0.15
16 0.18
17 -0.15
18 -0.15
19 -0.15
2 -0.18
20 -0.15
21 0.15
22 0.37
25 0.15
26 0.15
27 0.15
28 0.15
29 0.15
3 -0.57
30 0.15
4 -0.55
5 -0.7
6 0.09
7 0.28
8 0.12
9 0.09

> <PUBCHEM_EFFECTIVE_ROTOR_COUNT>
1.4

> <PUBCHEM_PHARMACOPHORE_FEATURES>
7
1 1 hydrophobe
1 3 acceptor
1 4 donor
1 5 acceptor
6 6 8 10 12 14 15 rings
6 9 16 17 18 19 20 rings
7 4 5 6 7 8 11 13 rings

> <PUBCHEM_HEAVY_ATOM_COUNT>
20

> <PUBCHEM_ATOM_DEF_STEREO_COUNT>
0

> <PUBCHEM_ATOM_UDEF_STEREO_COUNT>
0

> <PUBCHEM_BOND_DEF_STEREO_COUNT>
0

> <PUBCHEM_BOND_UDEF_STEREO_COUNT>
0

> <PUBCHEM_ISOTOPIC_ATOM_COUNT>
0

> <PUBCHEM_COMPONENT_COUNT>
1

> <PUBCHEM_CACTVS_TAUTO_COUNT>
3

> <PUBCHEM_CONFORMER_ID>
00009CB100000001

> <PUBCHEM_MMFF94_ENERGY>
78.6295

> <PUBCHEM_FEATURE_SELFOVERLAP>
35.531

> <PUBCHEM_SHAPE_FINGERPRINT>
11578080 2 17681512031784697492
11640471 11 18041571260447376468
12173636 292 18338228276149411508
12363563 72 17844526819239218623
12500047 106 18269551655134907600
12553582 1 18195529430864965347
12592029 89 18048326543876712793
12788726 201 18339648935466817047
13140716 1 18124311868063407875
133893 2 17186467654174317649
13583140 156 17202179886495457458
14115302 16 18262794202224834839
14790565 3 18411990161209698785
15852999 172 17986680264033487476
16752209 62 18411125927299092691
167882 2 17544754526075613989
16945 1 18410847785053291499
18785283 64 17257947991981483729
20510252 161 18343297080619325075
20645476 183 18262242122743747776
20645477 70 16539319875021606447
21452121 199 17832977626547334570
23184049 29 18196082472465354810
23419403 2 16099598696404359854
23557571 272 18128817624106992256
23559900 14 17987508231366255570
23598291 2 17968095296514923994
3084891 72 18412254056605613903
314173 41 17762341709471187883
5845 1 15099608719287059673
6992083 37 18113618945879552212
7364860 26 16827563419510554411
77492 1 18113617859447933576
81228 2 18201731681599149809
90525 40 18261116222852696962
9709674 26 18273218590964943126

> <PUBCHEM_SHAPE_MULTIPOLES>
403.57
5.68
4.19
1.41
5.14
1.51
0.29
2.02
1.08
-4.93
-0.66
0.76
-0.55
-0.78

> <PUBCHEM_SHAPE_SELFOVERLAP>
863.604

> <PUBCHEM_SHAPE_VOLUME>
228.9

> <PUBCHEM_COORDINATE_TYPE>
2
5
10

$$$$

2094
  -OEChem-12311613023D

 14 15  0     0  0  0  0  0  0999 V2000
    1.8177    1.8841   -0.0135 O   0  0  0  0  0  0  0  0  0  0  0  0
   -2.1033   -0.6662   -0.0227 N   0  0  0  0  0  0  0  0  0  0  0  0
   -2.3796    0.6473    0.0180 N   0  0  0  0  0  0  0  0  0  0  0  0
    0.0355   -1.8203   -0.0004 N   0  0  0  0  0  0  0  0  0  0  0  0
    2.0055   -0.4224    0.0069 N   0  0  0  0  0  0  0  0  0  0  0  0
   -0.1352    0.5845    0.0054 C   0  0  0  0  0  0  0  0  0  0  0  0
   -0.7301   -0.7809   -0.0070 C   0  0  0  0  0  0  0  0  0  0  0  0
   -1.2163    1.3787    0.0068 C   0  0  0  0  0  0  0  0  0  0  0  0
    1.3104    0.7697   -0.0027 C   0  0  0  0  0  0  0  0  0  0  0  0
    1.3952   -1.5745    0.0095 C   0  0  0  0  0  0  0  0  0  0  0  0
   -1.2657    2.4553   -0.0134 H   0  0  0  0  0  0  0  0  0  0  0  0
   -2.7958   -1.3996    0.0464 H   0  0  0  0  0  0  0  0  0  0  0  0
   -3.2696    1.0424   -0.2523 H   0  0  0  0  0  0  0  0  0  0  0  0
    2.0309   -2.4754    0.0191 H   0  0  0  0  0  0  0  0  0  0  0  0
  1  9  2  0  0  0  0
  2  3  1  0  0  0  0
  2  7  1  0  0  0  0
  2 12  1  0  0  0  0
  3  8  1  0  0  0  0
  3 13  1  0  0  0  0
  4  7  2  0  0  0  0
  4 10  1  0  0  0  0
  5  9  1  0  0  0  0
  5 10  2  0  0  0  0
  6  7  1  0  0  0  0
  6  8  2  0  0  0  0
  6  9  1  0  0  0  0
  8 11  1  0  0  0  0
 10 14  1  0  0  0  0
M  END
> <PUBCHEM_COMPOUND_CID>
2094

> <PUBCHEM_CONFORMER_RMSD>
0.4

> <PUBCHEM_CONFORMER_DIVERSEORDER>
1

> <PUBCHEM_MMFF94_PARTIAL_CHARGES>
14
1 -0.57
10 0.6
11 0.15
12 0.4
13 0.4
14 0.06
2 -0.45
3 -0.5
4 -0.66
5 -0.66
6 0.03
7 0.49
8 -0.05
9 0.77

> <PUBCHEM_EFFECTIVE_ROTOR_COUNT>
0

> <PUBCHEM_PHARMACOPHORE_FEATURES>
7
1 1 acceptor
1 2 donor
1 3 donor
1 5 donor
3 2 4 7 cation
5 2 3 6 7 8 rings
6 4 5 6 7 9 10 rings

> <PUBCHEM_HEAVY_ATOM_COUNT>
10

> <PUBCHEM_ATOM_DEF_STEREO_COUNT>
0

> <PUBCHEM_ATOM_UDEF_STEREO_COUNT>
0

> <PUBCHEM_BOND_DEF_STEREO_COUNT>
0

> <PUBCHEM_BOND_UDEF_STEREO_COUNT>
0

> <PUBCHEM_ISOTOPIC_ATOM_COUNT>
0

> <PUBCHEM_COMPONENT_COUNT>
1

> <PUBCHEM_CACTVS_TAUTO_COUNT>
13

> <PUBCHEM_CONFORMER_ID>
0000082E00000001

> <PUBCHEM_MMFF94_ENERGY>
51.2911

> <PUBCHEM_FEATURE_SELFOVERLAP>
37.311

> <PUBCHEM_SHAPE_FINGERPRINT>
16945 1 18338516331115953799
18185500 45 18050849914113717130
21040471 1 18266740366710508416
23552423 10 18407760330701342375
241688 4 17618787950982402834
2748010 2 18337955717524423927
29004967 10 18192436264105616842
5084963 1 18201999910738489723

> <PUBCHEM_SHAPE_MULTIPOLES>
180
2.72
1.91
0.57
0.61
0.07
0
0.23
0
-0.63
0
0
0
-0.01

> <PUBCHEM_SHAPE_SELFOVERLAP>
396.902

> <PUBCHEM_SHAPE_VOLUME>
95

> <PUBCHEM_COORDINATE_TYPE>
2
5
10

$$$$
1688
  -OEChem-12311613033D

 33 35  0     0  0  0  0  0  0999 V2000
    0.6184   -4.4437    0.8418 Cl  0  0  0  0  0  0  0  0  0  0  0  0
   -5.8892   -0.0264   -0.8691 Cl  0  0  0  0  0  0  0  0  0  0  0  0
    2.7266    3.2986   -0.2417 O   0  0  0  0  0  0  0  0  0  0  0  0
    2.6065    1.0059   -0.6404 N   0  0  0  0  0  0  0  0  0  0  0  0
    0.2323    1.7983    1.0794 N   0  0  0  0  0  0  0  0  0  0  0  0
    0.8291   -0.4675    0.3304 C   0  0  0  0  0  0  0  0  0  0  0  0
    2.0776   -0.2871   -0.3005 C   0  0  0  0  0  0  0  0  0  0  0  0
   -0.1163    0.6614    0.5788 C   0  0  0  0  0  0  0  0  0  0  0  0
    1.6300    1.9907    1.4036 C   0  0  0  0  0  0  0  0  0  0  0  0
   -1.5535    0.4912    0.2178 C   0  0  0  0  0  0  0  0  0  0  0  0
    2.3553    2.1709    0.0939 C   0  0  0  0  0  0  0  0  0  0  0  0
    0.3938   -1.7544    0.6959 C   0  0  0  0  0  0  0  0  0  0  0  0
    2.8205   -1.4420   -0.6167 C   0  0  0  0  0  0  0  0  0  0  0  0
    3.5130    1.0990   -1.7848 C   0  0  0  0  0  0  0  0  0  0  0  0
    1.1648   -2.8738    0.3984 C   0  0  0  0  0  0  0  0  0  0  0  0
    2.3717   -2.7186   -0.2688 C   0  0  0  0  0  0  0  0  0  0  0  0
   -1.9018   -0.3403   -0.8395 C   0  0  0  0  0  0  0  0  0  0  0  0
   -2.5287    1.1644    0.9437 C   0  0  0  0  0  0  0  0  0  0  0  0
   -3.2459   -0.5009   -1.1763 C   0  0  0  0  0  0  0  0  0  0  0  0
   -3.8727    1.0037    0.6070 C   0  0  0  0  0  0  0  0  0  0  0  0
   -4.2314    0.1709   -0.4530 C   0  0  0  0  0  0  0  0  0  0  0  0
    2.0622    1.1860    2.0084 H   0  0  0  0  0  0  0  0  0  0  0  0
    1.7376    2.9093    1.9910 H   0  0  0  0  0  0  0  0  0  0  0  0
   -0.5515   -1.8882    1.2185 H   0  0  0  0  0  0  0  0  0  0  0  0
    3.7873   -1.3751   -1.1095 H   0  0  0  0  0  0  0  0  0  0  0  0
    3.1475    0.4796   -2.6100 H   0  0  0  0  0  0  0  0  0  0  0  0
    4.5133    0.7808   -1.4750 H   0  0  0  0  0  0  0  0  0  0  0  0
    3.5847    2.1296   -2.1448 H   0  0  0  0  0  0  0  0  0  0  0  0
    2.9862   -3.5803   -0.5173 H   0  0  0  0  0  0  0  0  0  0  0  0
   -1.1605   -0.8518   -1.4461 H   0  0  0  0  0  0  0  0  0  0  0  0
   -2.2740    1.8109    1.7789 H   0  0  0  0  0  0  0  0  0  0  0  0
   -3.5105   -1.1471   -2.0095 H   0  0  0  0  0  0  0  0  0  0  0  0
   -4.6301    1.5320    1.1805 H   0  0  0  0  0  0  0  0  0  0  0  0
  1 15  1  0  0  0  0
  2 21  1  0  0  0  0
  3 11  2  0  0  0  0
  4  7  1  0  0  0  0
  4 11  1  0  0  0  0
  4 14  1  0  0  0  0
  5  8  2  0  0  0  0
  5  9  1  0  0  0  0
  6  7  2  0  0  0  0
  6  8  1  0  0  0  0
  6 12  1  0  0  0  0
  7 13  1  0  0  0  0
  8 10  1  0  0  0  0
  9 11  1  0  0  0  0
  9 22  1  0  0  0  0
  9 23  1  0  0  0  0
 10 17  2  0  0  0  0
 10 18  1  0  0  0  0
 12 15  2  0  0  0  0
 12 24  1  0  0  0  0
 13 16  2  0  0  0  0
 13 25  1  0  0  0  0
 14 26  1  0  0  0  0
 14 27  1  0  0  0  0
 14 28  1  0  0  0  0
 15 16  1  0  0  0  0
 16 29  1  0  0  0  0
 17 19  1  0  0  0  0
 17 30  1  0  0  0  0
 18 20  2  0  0  0  0
 18 31  1  0  0  0  0
 19 21  2  0  0  0  0
 19 32  1  0  0  0  0
 20 21  1  0  0  0  0
 20 33  1  0  0  0  0
M  END
> <PUBCHEM_COMPOUND_CID>
1688

> <PUBCHEM_CONFORMER_RMSD>
0.6

> <PUBCHEM_CONFORMER_DIVERSEORDER>
2
1

> <PUBCHEM_MMFF94_PARTIAL_CHARGES>
28
1 -0.18
10 0.09
11 0.57
12 -0.15
13 -0.15
14 0.3
15 0.18
16 -0.15
17 -0.15
18 -0.15
19 -0.15
2 -0.18
20 -0.15
21 0.18
24 0.15
25 0.15
29 0.15
3 -0.57
30 0.15
31 0.15
32 0.15
33 0.15
4 -0.48
5 -0.7
6 0.09
7 0.12
8 0.28
9 0.31

> <PUBCHEM_EFFECTIVE_ROTOR_COUNT>
1.4

> <PUBCHEM_PHARMACOPHORE_FEATURES>
5
1 3 acceptor
1 5 acceptor
6 10 17 18 19 20 21 rings
6 6 7 12 13 15 16 rings
7 4 5 6 7 8 9 11 rings

> <PUBCHEM_HEAVY_ATOM_COUNT>
21

> <PUBCHEM_ATOM_DEF_STEREO_COUNT>
0

> <PUBCHEM_ATOM_UDEF_STEREO_COUNT>
0

> <PUBCHEM_BOND_DEF_STEREO_COUNT>
0

> <PUBCHEM_BOND_UDEF_STEREO_COUNT>
0

> <PUBCHEM_ISOTOPIC_ATOM_COUNT>
0

> <PUBCHEM_COMPONENT_COUNT>
1

> <PUBCHEM_CACTVS_TAUTO_COUNT>
1

> <PUBCHEM_CONFORMER_ID>
0000069800000002

> <PUBCHEM_MMFF94_ENERGY>
83.2372

> <PUBCHEM_FEATURE_SELFOVERLAP>
25.383

> <PUBCHEM_SHAPE_FINGERPRINT>
10693767 8 18129947780363842926
1100329 8 18409727357457822426
12553582 1 17979635637152804955
12716301 132 17692518327845771112
12730499 353 18334864960854307747
13004483 165 17182492902248970090
13009979 54 17559117558212417435
13140716 1 18410849996935341882
13533116 47 18411697652762223647
13583140 156 17974030366188375241
15375462 189 18198347256229030595
16752209 62 17203604840579750573
16945 1 18263088733986358890
1813 80 17981890739743652054
18186145 218 18339647835834175381
20291156 8 17908985404949900555
20559304 39 18200866284349050899
20567600 347 18338221782206202931
20645477 70 18272082791137033511
21452121 199 17901937548453661682
21452121 99 18048879890462380752
21634736 98 18272090469926836742
22112679 90 17700987543306750504
22182313 1 17481448370928775276
2255824 54 18410854334889181634
22907989 373 17327185853783988148
23419403 2 17536357766243511202
235170 7 17749936822566950087
23559900 14 18335692794347056171
23598291 2 18128829538161615825
238 59 18410300224052347755
25 1 18410019861603957348
257057 1 17761486989767639594
2748010 2 16471768070832541912
3060560 45 18335420209604651156
312423 11 18131073702050865689
3323516 105 18340492274002409603
4409770 3 17331391486139772548
474 4 18337669823074273541
484989 97 18263661717021112386
543358 83 18268149756318936417
59682541 52 18049408537160947325
633830 44 18271815669624988981
6442390 28 18190748733196412843
7364860 26 18272923908298743162
7471813 234 18198614432879758926
84936 182 18272369806089280336
9981440 41 16408418518845670936

> <PUBCHEM_SHAPE_MULTIPOLES>
420.08
7.73
3.87
1.26
12.24
3.15
-0.15
-1.53
-3.21
-4.76
1.16
-0.18
-0.3
-0.78

> <PUBCHEM_SHAPE_SELFOVERLAP>
901.779

> <PUBCHEM_SHAPE_VOLUME>
233.6

> <PUBCHEM_COORDINATE_TYPE>
2
5
10

$$$$
