2040
  -OEChem-12311613123D

 35 37  0     0  0  0  0  0  0999 V2000
    1.7318   -2.9979    0.5645 F   0  0  0  0  0  0  0  0  0  0  0  0
   -0.1959    2.1095   -0.0377 O   0  0  0  0  0  0  0  0  0  0  0  0
    0.5825   -0.1031   -0.2553 N   0  0  0  0  0  0  0  0  0  0  0  0
   -1.0000   -1.8796   -0.2813 N   0  0  0  0  0  0  0  0  0  0  0  0
   -5.2425    1.7625    0.2047 N   0  0  0  0  0  0  0  0  0  0  0  0
    1.9556    0.3197   -0.2183 C   0  0  0  0  0  0  0  0  0  0  0  0
   -1.7981    0.4229   -0.0970 C   0  0  0  0  0  0  0  0  0  0  0  0
    0.2225   -1.4496   -0.3502 C   0  0  0  0  0  0  0  0  0  0  0  0
   -0.4011    0.9028   -0.1461 C   0  0  0  0  0  0  0  0  0  0  0  0
   -2.0359   -0.9507   -0.1418 C   0  0  0  0  0  0  0  0  0  0  0  0
    2.6365    0.4027    0.9908 C   0  0  0  0  0  0  0  0  0  0  0  0
   -2.8597    1.3284    0.0186 C   0  0  0  0  0  0  0  0  0  0  0  0
    2.5896    0.6424   -1.4128 C   0  0  0  0  0  0  0  0  0  0  0  0
   -3.3552   -1.4127   -0.0701 C   0  0  0  0  0  0  0  0  0  0  0  0
    1.2793   -2.5048   -0.6064 C   0  0  0  0  0  0  0  0  0  0  0  0
   -4.1691    0.8549    0.0884 C   0  0  0  0  0  0  0  0  0  0  0  0
    3.9692    0.8139    1.0058 C   0  0  0  0  0  0  0  0  0  0  0  0
   -4.4172   -0.5148    0.0454 C   0  0  0  0  0  0  0  0  0  0  0  0
    1.9730    0.0606    2.2852 C   0  0  0  0  0  0  0  0  0  0  0  0
    3.9225    1.0535   -1.3979 C   0  0  0  0  0  0  0  0  0  0  0  0
    4.6123    1.1393   -0.1886 C   0  0  0  0  0  0  0  0  0  0  0  0
   -2.6744    2.3992    0.0570 H   0  0  0  0  0  0  0  0  0  0  0  0
    2.0611    0.5785   -2.3602 H   0  0  0  0  0  0  0  0  0  0  0  0
   -3.5640   -2.4793   -0.1077 H   0  0  0  0  0  0  0  0  0  0  0  0
    2.1294   -2.1215   -1.1718 H   0  0  0  0  0  0  0  0  0  0  0  0
    0.8422   -3.3346   -1.1706 H   0  0  0  0  0  0  0  0  0  0  0  0
    4.5219    0.8864    1.9387 H   0  0  0  0  0  0  0  0  0  0  0  0
   -5.4333   -0.8974    0.0988 H   0  0  0  0  0  0  0  0  0  0  0  0
    2.6534    0.1838    3.1352 H   0  0  0  0  0  0  0  0  0  0  0  0
    1.1138    0.7154    2.4626 H   0  0  0  0  0  0  0  0  0  0  0  0
    1.6404   -0.9819    2.2871 H   0  0  0  0  0  0  0  0  0  0  0  0
    4.4232    1.3067   -2.3278 H   0  0  0  0  0  0  0  0  0  0  0  0
    5.6500    1.4595   -0.1771 H   0  0  0  0  0  0  0  0  0  0  0  0
   -5.0636    2.7574    0.2331 H   0  0  0  0  0  0  0  0  0  0  0  0
   -6.1926    1.4192    0.2524 H   0  0  0  0  0  0  0  0  0  0  0  0
  1 15  1  0  0  0  0
  2  9  2  0  0  0  0
  3  6  1  0  0  0  0
  3  8  1  0  0  0  0
  3  9  1  0  0  0  0
  4  8  2  0  0  0  0
  4 10  1  0  0  0  0
  5 16  1  0  0  0  0
  5 34  1  0  0  0  0
  5 35  1  0  0  0  0
  6 11  1  0  0  0  0
  6 13  2  0  0  0  0
  7  9  1  0  0  0  0
  7 10  2  0  0  0  0
  7 12  1  0  0  0  0
  8 15  1  0  0  0  0
 10 14  1  0  0  0  0
 11 17  2  0  0  0  0
 11 19  1  0  0  0  0
 12 16  2  0  0  0  0
 12 22  1  0  0  0  0
 13 20  1  0  0  0  0
 13 23  1  0  0  0  0
 14 18  2  0  0  0  0
 14 24  1  0  0  0  0
 15 25  1  0  0  0  0
 15 26  1  0  0  0  0
 16 18  1  0  0  0  0
 17 21  1  0  0  0  0
 17 27  1  0  0  0  0
 18 28  1  0  0  0  0
 19 29  1  0  0  0  0
 19 30  1  0  0  0  0
 19 31  1  0  0  0  0
 20 21  2  0  0  0  0
 20 32  1  0  0  0  0
 21 33  1  0  0  0  0
M  END
> <PUBCHEM_COMPOUND_CID>
2040

> <PUBCHEM_CONFORMER_RMSD>
0.6

> <PUBCHEM_CONFORMER_DIVERSEORDER>
2
1

> <PUBCHEM_MMFF94_PARTIAL_CHARGES>
30
1 -0.34
10 0.18
11 -0.14
12 -0.15
13 -0.15
14 -0.15
15 0.4
16 0.1
17 -0.15
18 -0.15
19 0.14
2 -0.57
20 -0.15
21 -0.15
22 0.15
23 0.15
24 0.15
27 0.15
28 0.15
3 -0.24
32 0.15
33 0.15
34 0.4
35 0.4
4 -0.63
5 -0.9
6 0.12
7 0.09
8 0.45
9 0.54

> <PUBCHEM_EFFECTIVE_ROTOR_COUNT>
2

> <PUBCHEM_PHARMACOPHORE_FEATURES>
6
1 2 acceptor
1 5 cation
1 5 donor
6 3 4 7 8 9 10 rings
6 6 11 13 17 20 21 rings
6 7 10 12 14 16 18 rings

> <PUBCHEM_HEAVY_ATOM_COUNT>
21

> <PUBCHEM_ATOM_DEF_STEREO_COUNT>
0

> <PUBCHEM_ATOM_UDEF_STEREO_COUNT>
0

> <PUBCHEM_BOND_DEF_STEREO_COUNT>
0

> <PUBCHEM_BOND_UDEF_STEREO_COUNT>
0

> <PUBCHEM_ISOTOPIC_ATOM_COUNT>
0

> <PUBCHEM_COMPONENT_COUNT>
1

> <PUBCHEM_CACTVS_TAUTO_COUNT>
1

> <PUBCHEM_CONFORMER_ID>
000007F800000002

> <PUBCHEM_MMFF94_ENERGY>
93.4092

> <PUBCHEM_FEATURE_SELFOVERLAP>
30.475

> <PUBCHEM_SHAPE_FINGERPRINT>
10366900 7 18130780175221992281
10411042 1 17403176392135417886
10498660 4 18342177769298270401
11132069 177 18410575097843581453
11578080 2 16880465970472729094
11963148 33 18191301783409349595
12236239 1 17895192246897235364
12403259 415 17845936341716936257
12403814 3 17603862317349291917
12592029 89 18335427875910063546
12633257 1 16515956051736215672
12788726 201 17320714085741898322
13140716 1 17907017631835046979
13544592 145 17917441951269518588
14178342 30 18340755040164992987
14341114 328 17603302686846330128
14790565 3 18337680831023167116
15196674 1 18411984641801689743
15536298 74 18342461391700503079
1601671 61 18409731755171660325
16752209 62 18267297818995274543
16945 1 18339919441424237783
18186145 218 17346321526546726419
19784866 170 18408326579379531489
19784866 9 18409729538978747418
20028762 73 17769661133093254087
20600515 1 18270958072061990448
20691752 17 17822015259353352991
20715895 44 17608349269726180109
21033648 29 17418369220959285745
21421861 104 17896877651571067411
2334 1 17475230683833319463
23366157 5 18042409032352159246
23402539 116 18272366516560738164
23493267 7 18114472252580551706
23559900 14 18201166511791416164
2748010 2 18339646620896299559
34934 24 18341610400292506365
350125 39 18194686956012970404
474 4 18041002851205211639
495365 180 17631436887636185575
4990 188 17489594471483004884
5104073 3 18338526214679669611
5265222 85 18054797441317197804
59755656 215 18341338786624290590
633830 44 18059569230459083508
7364860 26 18200031716522337846
7495541 125 11887665226065280687
77492 1 17749943488044670588
8272917 22 17022894632117434256

> <PUBCHEM_SHAPE_MULTIPOLES>
404.08
8.91
2.26
1.21
4.03
1.46
0.42
-4.19
-0.03
0.4
-0.12
-1.56
-0.12
-0.33

> <PUBCHEM_SHAPE_SELFOVERLAP>
890.625

> <PUBCHEM_SHAPE_VOLUME>
217.7

> <PUBCHEM_COORDINATE_TYPE>
2
5
10

$$$$

23914
  -OEChem-12311613123D

 36 38  0     0  0  0  0  0  0999 V2000
   -0.1700    1.7240   -1.0702 O   0  0  0  0  0  0  0  0  0  0  0  0
    0.2962   -0.4156   -0.2020 N   0  0  0  0  0  0  0  0  0  0  0  0
   -1.5108   -1.7681    0.5504 N   0  0  0  0  0  0  0  0  0  0  0  0
    1.7141   -0.2128   -0.3195 C   0  0  0  0  0  0  0  0  0  0  0  0
    2.4390    0.3349    0.7328 C   0  0  0  0  0  0  0  0  0  0  0  0
   -0.2446   -1.5883    0.3306 C   0  0  0  0  0  0  0  0  0  0  0  0
   -0.5390    0.6463   -0.6094 C   0  0  0  0  0  0  0  0  0  0  0  0
   -1.9857    0.4372   -0.3900 C   0  0  0  0  0  0  0  0  0  0  0  0
    1.7782    0.7297    2.0137 C   0  0  0  0  0  0  0  0  0  0  0  0
   -2.4073   -0.7524    0.2038 C   0  0  0  0  0  0  0  0  0  0  0  0
    2.3467   -0.5741   -1.5039 C   0  0  0  0  0  0  0  0  0  0  0  0
    3.8146    0.5238    0.5991 C   0  0  0  0  0  0  0  0  0  0  0  0
    0.6515   -2.7718    0.6335 C   0  0  0  0  0  0  0  0  0  0  0  0
   -2.9115    1.4245   -0.7478 C   0  0  0  0  0  0  0  0  0  0  0  0
    3.7223   -0.3853   -1.6374 C   0  0  0  0  0  0  0  0  0  0  0  0
    4.4561    0.1637   -0.5861 C   0  0  0  0  0  0  0  0  0  0  0  0
    1.2949    2.1764    1.9923 C   0  0  0  0  0  0  0  0  0  0  0  0
   -3.7738   -0.9460    0.4373 C   0  0  0  0  0  0  0  0  0  0  0  0
   -4.2697    1.2189   -0.5103 C   0  0  0  0  0  0  0  0  0  0  0  0
   -4.7012    0.0349    0.0830 C   0  0  0  0  0  0  0  0  0  0  0  0
    0.9456    0.0638    2.2641 H   0  0  0  0  0  0  0  0  0  0  0  0
    2.4896    0.6083    2.8412 H   0  0  0  0  0  0  0  0  0  0  0  0
    1.7839   -1.0026   -2.3288 H   0  0  0  0  0  0  0  0  0  0  0  0
    4.3994    0.9525    1.4087 H   0  0  0  0  0  0  0  0  0  0  0  0
    1.4058   -2.4895    1.3728 H   0  0  0  0  0  0  0  0  0  0  0  0
    1.1548   -3.0964   -0.2814 H   0  0  0  0  0  0  0  0  0  0  0  0
    0.0688   -3.6083    1.0303 H   0  0  0  0  0  0  0  0  0  0  0  0
   -2.5955    2.3567   -1.2076 H   0  0  0  0  0  0  0  0  0  0  0  0
    4.2218   -0.6657   -2.5602 H   0  0  0  0  0  0  0  0  0  0  0  0
    5.5271    0.3112   -0.6904 H   0  0  0  0  0  0  0  0  0  0  0  0
    2.1132    2.8659    1.7580 H   0  0  0  0  0  0  0  0  0  0  0  0
    0.8990    2.4490    2.9763 H   0  0  0  0  0  0  0  0  0  0  0  0
    0.4993    2.3403    1.2650 H   0  0  0  0  0  0  0  0  0  0  0  0
   -4.1255   -1.8676    0.8952 H   0  0  0  0  0  0  0  0  0  0  0  0
   -4.9910    1.9825   -0.7863 H   0  0  0  0  0  0  0  0  0  0  0  0
   -5.7592   -0.1261    0.2684 H   0  0  0  0  0  0  0  0  0  0  0  0
  1  7  2  0  0  0  0
  2  4  1  0  0  0  0
  2  6  1  0  0  0  0
  2  7  1  0  0  0  0
  3  6  2  0  0  0  0
  3 10  1  0  0  0  0
  4  5  1  0  0  0  0
  4 11  2  0  0  0  0
  5  9  1  0  0  0  0
  5 12  2  0  0  0  0
  6 13  1  0  0  0  0
  7  8  1  0  0  0  0
  8 10  1  0  0  0  0
  8 14  2  0  0  0  0
  9 17  1  0  0  0  0
  9 21  1  0  0  0  0
  9 22  1  0  0  0  0
 10 18  2  0  0  0  0
 11 15  1  0  0  0  0
 11 23  1  0  0  0  0
 12 16  1  0  0  0  0
 12 24  1  0  0  0  0
 13 25  1  0  0  0  0
 13 26  1  0  0  0  0
 13 27  1  0  0  0  0
 14 19  1  0  0  0  0
 14 28  1  0  0  0  0
 15 16  2  0  0  0  0
 15 29  1  0  0  0  0
 16 30  1  0  0  0  0
 17 31  1  0  0  0  0
 17 32  1  0  0  0  0
 17 33  1  0  0  0  0
 18 20  1  0  0  0  0
 18 34  1  0  0  0  0
 19 20  2  0  0  0  0
 19 35  1  0  0  0  0
 20 36  1  0  0  0  0
M  END
> <PUBCHEM_COMPOUND_CID>
23914

> <PUBCHEM_CONFORMER_RMSD>
0.6

> <PUBCHEM_CONFORMER_DIVERSEORDER>
1
2

> <PUBCHEM_MMFF94_PARTIAL_CHARGES>
27
1 -0.57
10 0.18
11 -0.15
12 -0.15
13 0.06
14 -0.15
15 -0.15
16 -0.15
18 -0.15
19 -0.15
2 -0.24
20 -0.15
23 0.15
24 0.15
28 0.15
29 0.15
3 -0.63
30 0.15
34 0.15
35 0.15
36 0.15
4 0.12
5 -0.14
6 0.45
7 0.54
8 0.09
9 0.14

> <PUBCHEM_EFFECTIVE_ROTOR_COUNT>
2

> <PUBCHEM_PHARMACOPHORE_FEATURES>
5
1 1 acceptor
1 17 hydrophobe
6 2 3 6 7 8 10 rings
6 4 5 11 12 15 16 rings
6 8 10 14 18 19 20 rings

> <PUBCHEM_HEAVY_ATOM_COUNT>
20

> <PUBCHEM_ATOM_DEF_STEREO_COUNT>
0

> <PUBCHEM_ATOM_UDEF_STEREO_COUNT>
0

> <PUBCHEM_BOND_DEF_STEREO_COUNT>
0

> <PUBCHEM_BOND_UDEF_STEREO_COUNT>
0

> <PUBCHEM_ISOTOPIC_ATOM_COUNT>
0

> <PUBCHEM_COMPONENT_COUNT>
1

> <PUBCHEM_CACTVS_TAUTO_COUNT>
1

> <PUBCHEM_CONFORMER_ID>
00005D6A00000001

> <PUBCHEM_MMFF94_ENERGY>
81.3621

> <PUBCHEM_FEATURE_SELFOVERLAP>
25.4

> <PUBCHEM_SHAPE_FINGERPRINT>
10366900 7 18411411805092015921
10498660 4 18260545589456393821
11132069 177 18114183021182762455
11471102 20 17275103942497347600
12236239 1 16877663478710595974
12403814 3 16515401863774463119
12670546 56 15285348510250986125
13134695 92 16630808815881067760
13140716 1 17972048191330538443
13538477 17 17168427180791676786
13760787 19 16081091502227471795
14341114 328 16225770717834714697
15536298 74 18263083219317383799
15848702 151 16988850462150231693
1601671 61 18041279877002167701
16752209 62 17968365849368825291
16945 1 18260265278716338031
17138139 8 15649871988378562739
17349148 13 17896020174942425007
17357779 13 17632296739883571584
17804303 29 18337111258577555305
18186145 218 18060416919801418883
200 152 15841556257954193294
20028762 73 18122918778996227779
20510252 161 18409733941246619401
20645477 70 17346326964223438494
21033648 29 18202273706899588809
21503847 285 17632580427058343417
221357 26 17775003449617393113
23175994 123 17846230955325672096
23402539 116 18408320003916568110
23493267 7 17386017168990188699
23526113 38 18201726119790691310
23558518 356 17768506632602599446
23559900 14 18410302389475436070
2748010 2 17901112137707537535
298252 57 17676785235522640626
350125 39 17827356579292456414
3524813 1 18341607118484175273
4409770 3 14863674492234591562
474 4 15337686444997031418
4990 188 18130791139661582198
5104073 3 18042973060990647497
53812653 166 18410569574525973891
633830 44 18201429290300895573
7364860 26 18194394490078364331
77492 1 16805320024434231694
81228 2 17831845120812498955
8272917 22 15140951816838236121

> <PUBCHEM_SHAPE_MULTIPOLES>
395.76
8.03
1.99
1.51
2.93
0.43
0.24
-1.13
-1.62
0.18
0.78
-1.23
-0.46
1.3

> <PUBCHEM_SHAPE_SELFOVERLAP>
866.848

> <PUBCHEM_SHAPE_VOLUME>
214.1

> <PUBCHEM_COORDINATE_TYPE>
2
5
10

$$$$

9567
  -OEChem-12311613133D

 30 32  0     0  0  0  0  0  0999 V2000
    1.7118    0.0061   -2.5364 Cl  0  0  0  0  0  0  0  0  0  0  0  0
   -0.1228   -2.0658    0.2071 O   0  0  0  0  0  0  0  0  0  0  0  0
    0.3772    0.2362    0.2002 N   0  0  0  0  0  0  0  0  0  0  0  0
   -1.4116    1.7993    0.0674 N   0  0  0  0  0  0  0  0  0  0  0  0
   -1.9204   -0.5907    0.1165 C   0  0  0  0  0  0  0  0  0  0  0  0
   -0.1459    1.5311    0.1666 C   0  0  0  0  0  0  0  0  0  0  0  0
   -0.4750   -0.8885    0.1990 C   0  0  0  0  0  0  0  0  0  0  0  0
    1.7919   -0.0168    0.1918 C   0  0  0  0  0  0  0  0  0  0  0  0
   -2.3252    0.7412    0.0293 C   0  0  0  0  0  0  0  0  0  0  0  0
   -2.8623   -1.6263    0.1002 C   0  0  0  0  0  0  0  0  0  0  0  0
   -3.6911    1.0288   -0.0745 C   0  0  0  0  0  0  0  0  0  0  0  0
    0.7723    2.7278    0.3087 C   0  0  0  0  0  0  0  0  0  0  0  0
    2.4935   -0.1386   -1.0026 C   0  0  0  0  0  0  0  0  0  0  0  0
    2.4469   -0.1386    1.4129 C   0  0  0  0  0  0  0  0  0  0  0  0
   -4.2197   -1.3262   -0.0030 C   0  0  0  0  0  0  0  0  0  0  0  0
   -4.6345    0.0005   -0.0915 C   0  0  0  0  0  0  0  0  0  0  0  0
    3.8661   -0.3855   -0.9761 C   0  0  0  0  0  0  0  0  0  0  0  0
    3.8194   -0.3852    1.4394 C   0  0  0  0  0  0  0  0  0  0  0  0
    4.5291   -0.5088    0.2450 C   0  0  0  0  0  0  0  0  0  0  0  0
   -2.5596   -2.6678    0.1640 H   0  0  0  0  0  0  0  0  0  0  0  0
    1.5038    2.7357   -0.5037 H   0  0  0  0  0  0  0  0  0  0  0  0
    1.3024    2.6742    1.2636 H   0  0  0  0  0  0  0  0  0  0  0  0
    0.2019    3.6607    0.2748 H   0  0  0  0  0  0  0  0  0  0  0  0
   -4.0297    2.0603   -0.1394 H   0  0  0  0  0  0  0  0  0  0  0  0
    1.9038   -0.0442    2.3495 H   0  0  0  0  0  0  0  0  0  0  0  0
   -4.9535   -2.1267   -0.0160 H   0  0  0  0  0  0  0  0  0  0  0  0
   -5.6919    0.2353   -0.1718 H   0  0  0  0  0  0  0  0  0  0  0  0
    4.4339   -0.4845   -1.8978 H   0  0  0  0  0  0  0  0  0  0  0  0
    4.3357   -0.4811    2.3900 H   0  0  0  0  0  0  0  0  0  0  0  0
    5.5978   -0.7009    0.2659 H   0  0  0  0  0  0  0  0  0  0  0  0
  1 13  1  0  0  0  0
  2  7  2  0  0  0  0
  3  6  1  0  0  0  0
  3  7  1  0  0  0  0
  3  8  1  0  0  0  0
  4  6  2  0  0  0  0
  4  9  1  0  0  0  0
  5  7  1  0  0  0  0
  5  9  1  0  0  0  0
  5 10  2  0  0  0  0
  6 12  1  0  0  0  0
  8 13  1  0  0  0  0
  8 14  2  0  0  0  0
  9 11  2  0  0  0  0
 10 15  1  0  0  0  0
 10 20  1  0  0  0  0
 11 16  1  0  0  0  0
 11 24  1  0  0  0  0
 12 21  1  0  0  0  0
 12 22  1  0  0  0  0
 12 23  1  0  0  0  0
 13 17  2  0  0  0  0
 14 18  1  0  0  0  0
 14 25  1  0  0  0  0
 15 16  2  0  0  0  0
 15 26  1  0  0  0  0
 16 27  1  0  0  0  0
 17 19  1  0  0  0  0
 17 28  1  0  0  0  0
 18 19  2  0  0  0  0
 18 29  1  0  0  0  0
 19 30  1  0  0  0  0
M  END
> <PUBCHEM_COMPOUND_CID>
9567

> <PUBCHEM_CONFORMER_RMSD>
0.6

> <PUBCHEM_CONFORMER_DIVERSEORDER>
1
2

> <PUBCHEM_MMFF94_PARTIAL_CHARGES>
27
1 -0.18
10 -0.15
11 -0.15
12 0.06
13 0.18
14 -0.15
15 -0.15
16 -0.15
17 -0.15
18 -0.15
19 -0.15
2 -0.57
20 0.15
24 0.15
25 0.15
26 0.15
27 0.15
28 0.15
29 0.15
3 -0.24
30 0.15
4 -0.63
5 0.09
6 0.45
7 0.54
8 0.12
9 0.18

> <PUBCHEM_EFFECTIVE_ROTOR_COUNT>
1

> <PUBCHEM_PHARMACOPHORE_FEATURES>
4
1 2 acceptor
6 3 4 5 6 7 9 rings
6 5 9 10 11 15 16 rings
6 8 13 14 17 18 19 rings

> <PUBCHEM_HEAVY_ATOM_COUNT>
19

> <PUBCHEM_ATOM_DEF_STEREO_COUNT>
0

> <PUBCHEM_ATOM_UDEF_STEREO_COUNT>
0

> <PUBCHEM_BOND_DEF_STEREO_COUNT>
0

> <PUBCHEM_BOND_UDEF_STEREO_COUNT>
0

> <PUBCHEM_ISOTOPIC_ATOM_COUNT>
0

> <PUBCHEM_COMPONENT_COUNT>
1

> <PUBCHEM_CACTVS_TAUTO_COUNT>
1

> <PUBCHEM_CONFORMER_ID>
0000255F00000001

> <PUBCHEM_MMFF94_ENERGY>
78.7338

> <PUBCHEM_FEATURE_SELFOVERLAP>
20.326

> <PUBCHEM_SHAPE_FINGERPRINT>
10062212 137 18187081758912118923
11132069 177 18412261714331186547
11543360 7 15864354700618483859
12236239 1 17748827393527078722
12403814 3 17458062625993837581
12553582 1 18408888425737348009
13134695 92 15719393928002955662
13140716 1 18338801238335991401
13538477 17 17967537908301564530
13862211 1 18410567405821216691
14115302 16 17894354409792723203
14252887 29 17632584837620276422
14289901 80 15554446275740598811
14386348 63 17989491805159323927
15196674 1 18410571833795030521
15375358 24 17917990555684030909
15536298 74 18269833275713517977
15848700 24 18272083915764324029
16752209 62 18334293145550369227
16945 1 18411422782928171649
17804303 29 18410009961989092377
19141452 34 17704071832911685911
19862831 5 17967540072811970894
200 152 16732980907995539728
20028762 73 18057887047027107207
20233049 118 18261112980257968100
20279233 1 17775005682578088495
20344682 1 17704073980331802924
204376 136 15841259450387243646
20600515 1 18341611533705378384
20645476 183 17458918131407102867
20905425 154 18054511305183229998
21033648 29 17060043831537953963
21267235 1 18410016559206805451
22854114 59 16343699937146812202
232386 152 18335983142098212445
2334 1 18122342647544503537
23366157 5 17898286357895131380
23402539 116 18343293760736355062
23532345 42 18343860035094612192
23557571 272 18130515119599415844
23559900 14 18342743966847984246
2748010 2 18193553591885600865
296302 2 15626221338113137267
3286 77 18261385719624639631
335352 9 18410853249011503293
4340502 62 15051732023402064095
43471831 8 18262794051859268866
474 4 13685140229636807098
5104073 3 18267870652501485355
5902787 121 18410290358438505281
69090 78 17346872368903139351
7364860 26 18127692853465779824
7495541 125 17749682899573015969
77492 1 17676492713879319824
81228 2 18057063318794671104
8272917 22 14620526592117537661
9709674 26 18122341547916694907

> <PUBCHEM_SHAPE_MULTIPOLES>
377.05
8.32
1.86
1.34
1.76
0.86
0.72
-2.25
-0.41
0.94
-0.22
-1.7
-0.09
0.02

> <PUBCHEM_SHAPE_SELFOVERLAP>
823.943

> <PUBCHEM_SHAPE_VOLUME>
204.9

> <PUBCHEM_COORDINATE_TYPE>
2
5
10

$$$$

63382
  -OEChem-12311613143D

 36 38  0     0  0  0  0  0  0999 V2000
   -0.3657   -2.0398    0.1798 O   0  0  0  0  0  0  0  0  0  0  0  0
    0.0673    0.2757    0.1833 N   0  0  0  0  0  0  0  0  0  0  0  0
   -1.7670    1.7870    0.0730 N   0  0  0  0  0  0  0  0  0  0  0  0
    1.4886    0.0640    0.1631 C   0  0  0  0  0  0  0  0  0  0  0  0
    2.1719   -0.0273   -1.0439 C   0  0  0  0  0  0  0  0  0  0  0  0
   -0.4933    1.5550    0.1614 C   0  0  0  0  0  0  0  0  0  0  0  0
   -0.7519   -0.8732    0.1815 C   0  0  0  0  0  0  0  0  0  0  0  0
   -2.2059   -0.6170    0.1112 C   0  0  0  0  0  0  0  0  0  0  0  0
   -2.6498    0.7031    0.0350 C   0  0  0  0  0  0  0  0  0  0  0  0
    2.1665   -0.0475    1.3719 C   0  0  0  0  0  0  0  0  0  0  0  0
    3.5516   -0.2329   -1.0426 C   0  0  0  0  0  0  0  0  0  0  0  0
    4.2387   -0.3458    0.1661 C   0  0  0  0  0  0  0  0  0  0  0  0
    3.5462   -0.2530    1.3733 C   0  0  0  0  0  0  0  0  0  0  0  0
    1.4616    0.0899   -2.3534 C   0  0  0  0  0  0  0  0  0  0  0  0
    0.3908    2.7771    0.3041 C   0  0  0  0  0  0  0  0  0  0  0  0
   -3.1175   -1.6794    0.0954 C   0  0  0  0  0  0  0  0  0  0  0  0
   -4.0242    0.9516   -0.0572 C   0  0  0  0  0  0  0  0  0  0  0  0
    5.7137   -0.5655    0.1679 C   0  0  0  0  0  0  0  0  0  0  0  0
   -4.4838   -1.4182    0.0039 C   0  0  0  0  0  0  0  0  0  0  0  0
   -4.9376   -0.1036   -0.0736 C   0  0  0  0  0  0  0  0  0  0  0  0
    1.6359    0.0231    2.3176 H   0  0  0  0  0  0  0  0  0  0  0  0
    4.0963   -0.3078   -1.9809 H   0  0  0  0  0  0  0  0  0  0  0  0
    4.0695   -0.3409    2.3217 H   0  0  0  0  0  0  0  0  0  0  0  0
    2.1504   -0.0074   -3.1998 H   0  0  0  0  0  0  0  0  0  0  0  0
    0.7107   -0.7001   -2.4565 H   0  0  0  0  0  0  0  0  0  0  0  0
    0.9751    1.0662   -2.4444 H   0  0  0  0  0  0  0  0  0  0  0  0
    1.1205    2.8091   -0.5091 H   0  0  0  0  0  0  0  0  0  0  0  0
    0.9240    2.7356    1.2579 H   0  0  0  0  0  0  0  0  0  0  0  0
   -0.2061    3.6933    0.2745 H   0  0  0  0  0  0  0  0  0  0  0  0
   -2.7843   -2.7120    0.1507 H   0  0  0  0  0  0  0  0  0  0  0  0
   -4.3930    1.9731   -0.1133 H   0  0  0  0  0  0  0  0  0  0  0  0
    5.9341   -1.6358    0.1062 H   0  0  0  0  0  0  0  0  0  0  0  0
    6.1880   -0.0587   -0.6794 H   0  0  0  0  0  0  0  0  0  0  0  0
    6.1737   -0.1657    1.0781 H   0  0  0  0  0  0  0  0  0  0  0  0
   -5.1942   -2.2396   -0.0088 H   0  0  0  0  0  0  0  0  0  0  0  0
   -6.0018    0.1008   -0.1449 H   0  0  0  0  0  0  0  0  0  0  0  0
  1  7  2  0  0  0  0
  2  4  1  0  0  0  0
  2  6  1  0  0  0  0
  2  7  1  0  0  0  0
  3  6  2  0  0  0  0
  3  9  1  0  0  0  0
  4  5  2  0  0  0  0
  4 10  1  0  0  0  0
  5 11  1  0  0  0  0
  5 14  1  0  0  0  0
  6 15  1  0  0  0  0
  7  8  1  0  0  0  0
  8  9  1  0  0  0  0
  8 16  2  0  0  0  0
  9 17  2  0  0  0  0
 10 13  2  0  0  0  0
 10 21  1  0  0  0  0
 11 12  2  0  0  0  0
 11 22  1  0  0  0  0
 12 13  1  0  0  0  0
 12 18  1  0  0  0  0
 13 23  1  0  0  0  0
 14 24  1  0  0  0  0
 14 25  1  0  0  0  0
 14 26  1  0  0  0  0
 15 27  1  0  0  0  0
 15 28  1  0  0  0  0
 15 29  1  0  0  0  0
 16 19  1  0  0  0  0
 16 30  1  0  0  0  0
 17 20  1  0  0  0  0
 17 31  1  0  0  0  0
 18 32  1  0  0  0  0
 18 33  1  0  0  0  0
 18 34  1  0  0  0  0
 19 20  2  0  0  0  0
 19 35  1  0  0  0  0
 20 36  1  0  0  0  0
M  END
> <PUBCHEM_COMPOUND_CID>
63382

> <PUBCHEM_CONFORMER_RMSD>
0.6

> <PUBCHEM_CONFORMER_DIVERSEORDER>
1
2

> <PUBCHEM_MMFF94_PARTIAL_CHARGES>
27
1 -0.57
10 -0.15
11 -0.15
12 -0.14
13 -0.15
14 0.14
15 0.06
16 -0.15
17 -0.15
18 0.14
19 -0.15
2 -0.24
20 -0.15
21 0.15
22 0.15
23 0.15
3 -0.63
30 0.15
31 0.15
35 0.15
36 0.15
4 0.12
5 -0.14
6 0.45
7 0.54
8 0.09
9 0.18

> <PUBCHEM_EFFECTIVE_ROTOR_COUNT>
1

> <PUBCHEM_PHARMACOPHORE_FEATURES>
4
1 1 acceptor
6 2 3 6 7 8 9 rings
6 4 5 10 11 12 13 rings
6 8 9 16 17 19 20 rings

> <PUBCHEM_HEAVY_ATOM_COUNT>
20

> <PUBCHEM_ATOM_DEF_STEREO_COUNT>
0

> <PUBCHEM_ATOM_UDEF_STEREO_COUNT>
0

> <PUBCHEM_BOND_DEF_STEREO_COUNT>
0

> <PUBCHEM_BOND_UDEF_STEREO_COUNT>
0

> <PUBCHEM_ISOTOPIC_ATOM_COUNT>
0

> <PUBCHEM_COMPONENT_COUNT>
1

> <PUBCHEM_CACTVS_TAUTO_COUNT>
1

> <PUBCHEM_CONFORMER_ID>
0000F79600000001

> <PUBCHEM_MMFF94_ENERGY>
83.2539

> <PUBCHEM_FEATURE_SELFOVERLAP>
20.326

> <PUBCHEM_SHAPE_FINGERPRINT>
10062212 137 18187364346380317731
11132069 177 18412546492296003289
12119455 92 16917061162003220502
12236239 1 17749108872666835874
13140716 1 18339366387397174721
13288520 33 18410573976598569762
13862211 1 18411133662873062603
14115302 16 17822296828639697171
14289901 80 15626223494445280203
14386348 63 17917714590939442350
15196674 1 18338796818445527721
15375358 24 17846499218803437533
15536298 74 18269833280187839841
15788980 27 17749390360322772009
15848700 24 18272083924549450421
16752209 62 18334009484583043435
16945 1 18411422791655256281
17349148 13 18186522094197313247
17804303 29 18410572920579940561
18186145 218 13334736847157474213
19141452 34 17632295718145416439
19862831 5 17822015315113691430
200 152 16877661249216510644
20028762 73 18057887051327349279
20233049 118 18333449854417652796
20279233 1 17775571935371890471
20344682 1 17704354351375369900
20600515 1 18342748420080645636
21033648 29 17131539579392132347
21267235 1 18409452514084189971
22079108 93 14404889328381110502
22854114 59 16271927112256887166
2297311 6 18342746191540738532
23366157 5 17898850416008156885
23402539 116 18343014488961718822
23557571 272 18202006477986487532
23559900 14 18270967843433757910
26918003 58 16487256581826908995
2748010 2 18193553600617934257
296302 2 15123791790440105775
335352 9 18410853262023012229
34797466 226 18200327614663633196
4340502 62 14979958103327185599
474 4 16951701387864500540
5104073 3 18268999850885208481
59755656 215 18338235955635716054
67856867 119 18115875264389535004
69090 78 17274816973999217295
7364860 26 18055916738578217081
7495541 125 18131067156399445920
77492 1 17676492718063569280
81228 2 18056502576496637921
8272917 22 14476976553187215709
8863177 126 17752781400935032387
9709674 26 18122060077256037611

> <PUBCHEM_SHAPE_MULTIPOLES>
395.76
9.72
1.83
1.22
1.28
0.83
-0.52
-2.99
0.53
-1.3
0.21
1.31
-0.02
-0.01

> <PUBCHEM_SHAPE_SELFOVERLAP>
869.427

> <PUBCHEM_SHAPE_VOLUME>
214.6

> <PUBCHEM_COORDINATE_TYPE>
2
5
10

$$$$
63339
  -OEChem-12311613143D

 36 38  0     0  0  0  0  0  0999 V2000
    0.9152   -0.5927   -2.0589 O   0  0  0  0  0  0  0  0  0  0  0  0
   -0.8825   -1.7177    0.9999 O   0  0  0  0  0  0  0  0  0  0  0  0
    5.6765    0.1768    1.3825 O   0  5  0  0  0  0  0  0  0  0  0  0
    5.6711   -0.6249   -0.6611 O   0  0  0  0  0  0  0  0  0  0  0  0
   -0.5313    0.4444    0.1334 N   0  0  0  0  0  0  0  0  0  0  0  0
   -2.4178    1.7454   -0.5064 N   0  0  0  0  0  0  0  0  0  0  0  0
    5.0697   -0.1592    0.3369 N   0  3  0  0  0  0  0  0  0  0  0  0
    0.8966    0.2864    0.1734 C   0  0  0  0  0  0  0  0  0  0  0  0
   -1.1367    1.6044   -0.3560 C   0  0  0  0  0  0  0  0  0  0  0  0
   -2.7718   -0.4834    0.4320 C   0  0  0  0  0  0  0  0  0  0  0  0
   -1.3096   -0.6479    0.5719 C   0  0  0  0  0  0  0  0  0  0  0  0
   -3.2619    0.6979   -0.1247 C   0  0  0  0  0  0  0  0  0  0  0  0
    1.5768   -0.2277   -0.9243 C   0  0  0  0  0  0  0  0  0  0  0  0
    1.5832    0.6548    1.3247 C   0  0  0  0  0  0  0  0  0  0  0  0
   -3.6454   -1.5037    0.8266 C   0  0  0  0  0  0  0  0  0  0  0  0
   -0.2959    2.8192   -0.6920 C   0  0  0  0  0  0  0  0  0  0  0  0
    2.9627   -0.3756   -0.8702 C   0  0  0  0  0  0  0  0  0  0  0  0
   -4.6444    0.8496   -0.2833 C   0  0  0  0  0  0  0  0  0  0  0  0
    3.6589   -0.0082    0.2813 C   0  0  0  0  0  0  0  0  0  0  0  0
    2.9691    0.5070    1.3788 C   0  0  0  0  0  0  0  0  0  0  0  0
   -5.0202   -1.3396    0.6637 C   0  0  0  0  0  0  0  0  0  0  0  0
   -5.5200   -0.1643    0.1081 C   0  0  0  0  0  0  0  0  0  0  0  0
    0.4576   -1.9409   -2.1361 C   0  0  0  0  0  0  0  0  0  0  0  0
    1.0543    1.0572    2.1845 H   0  0  0  0  0  0  0  0  0  0  0  0
   -3.2759   -2.4297    1.2582 H   0  0  0  0  0  0  0  0  0  0  0  0
    3.4740   -0.7793   -1.7411 H   0  0  0  0  0  0  0  0  0  0  0  0
    0.4243    2.5677   -1.4752 H   0  0  0  0  0  0  0  0  0  0  0  0
    0.2471    3.1493    0.1978 H   0  0  0  0  0  0  0  0  0  0  0  0
   -0.9251    3.6411   -1.0457 H   0  0  0  0  0  0  0  0  0  0  0  0
   -5.0490    1.7639   -0.7111 H   0  0  0  0  0  0  0  0  0  0  0  0
    3.4782    0.8036    2.2923 H   0  0  0  0  0  0  0  0  0  0  0  0
   -5.7012   -2.1289    0.9684 H   0  0  0  0  0  0  0  0  0  0  0  0
   -6.5909   -0.0356   -0.0191 H   0  0  0  0  0  0  0  0  0  0  0  0
    0.9542   -2.5938   -1.4098 H   0  0  0  0  0  0  0  0  0  0  0  0
    0.6641   -2.3161   -3.1424 H   0  0  0  0  0  0  0  0  0  0  0  0
   -0.6232   -1.9641   -1.9728 H   0  0  0  0  0  0  0  0  0  0  0  0
  1 13  1  0  0  0  0
  1 23  1  0  0  0  0
  2 11  2  0  0  0  0
  3  7  1  0  0  0  0
  4  7  2  0  0  0  0
  5  8  1  0  0  0  0
  5  9  1  0  0  0  0
  5 11  1  0  0  0  0
  6  9  2  0  0  0  0
  6 12  1  0  0  0  0
  7 19  1  0  0  0  0
  8 13  2  0  0  0  0
  8 14  1  0  0  0  0
  9 16  1  0  0  0  0
 10 11  1  0  0  0  0
 10 12  1  0  0  0  0
 10 15  2  0  0  0  0
 12 18  2  0  0  0  0
 13 17  1  0  0  0  0
 14 20  2  0  0  0  0
 14 24  1  0  0  0  0
 15 21  1  0  0  0  0
 15 25  1  0  0  0  0
 16 27  1  0  0  0  0
 16 28  1  0  0  0  0
 16 29  1  0  0  0  0
 17 19  2  0  0  0  0
 17 26  1  0  0  0  0
 18 22  1  0  0  0  0
 18 30  1  0  0  0  0
 19 20  1  0  0  0  0
 20 31  1  0  0  0  0
 21 22  2  0  0  0  0
 21 32  1  0  0  0  0
 22 33  1  0  0  0  0
 23 34  1  0  0  0  0
 23 35  1  0  0  0  0
 23 36  1  0  0  0  0
M  CHG  2   3  -1   7   1
M  END
> <PUBCHEM_COMPOUND_CID>
63339

> <PUBCHEM_CONFORMER_RMSD>
0.6

> <PUBCHEM_CONFORMER_DIVERSEORDER>
2
1

> <PUBCHEM_MMFF94_PARTIAL_CHARGES>
30
1 -0.36
10 0.09
11 0.54
12 0.18
13 0.08
14 -0.15
15 -0.15
16 0.06
17 -0.15
18 -0.15
19 0.13
2 -0.57
20 -0.15
21 -0.15
22 -0.15
23 0.28
24 0.15
25 0.15
26 0.15
3 -0.52
30 0.15
31 0.15
32 0.15
33 0.15
4 -0.52
5 -0.24
6 -0.63
7 0.91
8 0.12
9 0.45

> <PUBCHEM_EFFECTIVE_ROTOR_COUNT>
3

> <PUBCHEM_PHARMACOPHORE_FEATURES>
8
1 1 acceptor
1 2 acceptor
1 3 acceptor
1 3 anion
1 4 acceptor
6 10 12 15 18 21 22 rings
6 5 6 9 10 11 12 rings
6 8 13 14 17 19 20 rings

> <PUBCHEM_HEAVY_ATOM_COUNT>
23

> <PUBCHEM_ATOM_DEF_STEREO_COUNT>
0

> <PUBCHEM_ATOM_UDEF_STEREO_COUNT>
0

> <PUBCHEM_BOND_DEF_STEREO_COUNT>
0

> <PUBCHEM_BOND_UDEF_STEREO_COUNT>
0

> <PUBCHEM_ISOTOPIC_ATOM_COUNT>
0

> <PUBCHEM_COMPONENT_COUNT>
1

> <PUBCHEM_CACTVS_TAUTO_COUNT>
1

> <PUBCHEM_CONFORMER_ID>
0000F76B00000002

> <PUBCHEM_MMFF94_ENERGY>
106.2489

> <PUBCHEM_FEATURE_SELFOVERLAP>
40.708

> <PUBCHEM_SHAPE_FINGERPRINT>
10 15 18271793667303675456
10906281 52 18266201515882226389
12035758 1 18060132176286037506
12107183 9 17029072611902836720
12119455 92 17846494842031478046
12166972 35 16877949368602548317
12236239 1 16805603659404932896
12592029 89 17703225122848007678
13288520 33 18187083957819031129
13583140 156 18119498043454447904
13590594 115 15068619375042727295
13862211 1 18187642540002047035
14115302 16 16878233059998615755
14294032 229 17459737144207988861
14386348 63 18272091586670847163
19141452 34 18130508630336452111
200 152 15719391728700176581
20344682 1 18273215283175246612
204376 136 17203325645645118438
20600515 1 18261967300951376085
21033648 29 17703210854665886112
21267235 1 18114750425592419227
21682296 61 17273711853613820526
22079108 93 16200143326768964202
22224240 67 17489582389819343127
2297311 6 18336272271113021292
23402539 116 18408036321226316767
23557571 272 18338804416068698549
23559900 14 18335143081324325652
26918003 58 17418379112211121163
3004659 81 17749113300862501204
335352 9 18259702312105183229
34797466 226 18335997436556618884
465052 167 18342461456452014394
474 4 15122924323195236306
5104073 3 18058453093017971962
59755656 215 18260266309086944243
67856867 119 17677059069705358452
7495541 125 18411418444847925928
77492 1 16805326573884896089
81228 2 18194141624364031033

> <PUBCHEM_SHAPE_MULTIPOLES>
434.91
10.98
1.83
1.44
3.18
0.65
-0.41
-2.03
2.68
-1.19
-0.55
1
-0.47
1.21

> <PUBCHEM_SHAPE_SELFOVERLAP>
956.212

> <PUBCHEM_SHAPE_VOLUME>
234.9

> <PUBCHEM_COORDINATE_TYPE>
2
5
10

$$$$
