86130531
  -OEChem-12311612303D

 59 61  0     1  0  0  0  0  0999 V2000
   -2.1277    2.1747   -1.2883 O   0  0  0  0  0  0  0  0  0  0  0  0
    1.6380   -0.0988   -0.3919 N   0  0  1  0  0  0  0  0  0  0  0  0
   -2.5912    0.1047   -0.2307 N   0  0  0  0  0  0  0  0  0  0  0  0
   -1.2646   -0.4654   -0.1527 C   0  0  1  0  0  0  0  0  0  0  0  0
   -0.5525   -0.4718   -1.5213 C   0  0  1  0  0  0  0  0  0  0  0  0
   -0.4337    0.3090    0.8759 C   0  0  0  0  0  0  0  0  0  0  0  0
    0.9142   -0.9222   -1.3696 C   0  0  0  0  0  0  0  0  0  0  0  0
    1.0095   -0.1854    0.9309 C   0  0  0  0  0  0  0  0  0  0  0  0
   -1.2585   -1.3813   -2.5335 C   0  0  0  0  0  0  0  0  0  0  0  0
    3.0411   -0.5065   -0.3182 C   0  0  0  0  0  0  0  0  0  0  0  0
    3.9208    0.6440    0.1721 C   0  0  0  0  0  0  0  0  0  0  0  0
   -3.7146   -0.7504    0.1466 C   0  0  0  0  0  0  0  0  0  0  0  0
   -2.8343    1.4720   -0.5614 C   0  0  0  0  0  0  0  0  0  0  0  0
   -4.1165    2.0582    0.0254 C   0  0  0  0  0  0  0  0  0  0  0  0
    5.3734    0.2437    0.2316 C   0  0  0  0  0  0  0  0  0  0  0  0
   -4.7632   -0.9597   -0.7491 C   0  0  0  0  0  0  0  0  0  0  0  0
   -3.7384   -1.3571    1.4023 C   0  0  0  0  0  0  0  0  0  0  0  0
   -4.0088    3.5594    0.2964 C   0  0  0  0  0  0  0  0  0  0  0  0
   -5.8358   -1.7757   -0.3890 C   0  0  0  0  0  0  0  0  0  0  0  0
   -4.8109   -2.1730    1.7626 C   0  0  0  0  0  0  0  0  0  0  0  0
    5.8964   -0.3130    1.3987 C   0  0  0  0  0  0  0  0  0  0  0  0
    6.1941    0.4302   -0.8806 C   0  0  0  0  0  0  0  0  0  0  0  0
   -5.8596   -2.3823    0.8668 C   0  0  0  0  0  0  0  0  0  0  0  0
   -2.9161    3.8663    1.3076 C   0  0  0  0  0  0  0  0  0  0  0  0
    7.2403   -0.6832    1.4537 C   0  0  0  0  0  0  0  0  0  0  0  0
    7.5378    0.0602   -0.8258 C   0  0  0  0  0  0  0  0  0  0  0  0
    8.0609   -0.4965    0.3413 C   0  0  0  0  0  0  0  0  0  0  0  0
   -1.3344   -1.5082    0.1867 H   0  0  0  0  0  0  0  0  0  0  0  0
   -0.5329    0.5378   -1.9471 H   0  0  0  0  0  0  0  0  0  0  0  0
   -0.8866    0.2173    1.8708 H   0  0  0  0  0  0  0  0  0  0  0  0
   -0.4241    1.3818    0.6441 H   0  0  0  0  0  0  0  0  0  0  0  0
    1.3989   -0.8336   -2.3507 H   0  0  0  0  0  0  0  0  0  0  0  0
    0.9546   -1.9827   -1.0848 H   0  0  0  0  0  0  0  0  0  0  0  0
    1.5427    0.4362    1.6582 H   0  0  0  0  0  0  0  0  0  0  0  0
    1.0293   -1.2155    1.3111 H   0  0  0  0  0  0  0  0  0  0  0  0
   -1.3350   -2.4080   -2.1599 H   0  0  0  0  0  0  0  0  0  0  0  0
   -0.7104   -1.4067   -3.4815 H   0  0  0  0  0  0  0  0  0  0  0  0
   -2.2685   -1.0209   -2.7507 H   0  0  0  0  0  0  0  0  0  0  0  0
    3.1704   -1.4030    0.3032 H   0  0  0  0  0  0  0  0  0  0  0  0
    3.4016   -0.7828   -1.3190 H   0  0  0  0  0  0  0  0  0  0  0  0
    3.6137    0.9884    1.1668 H   0  0  0  0  0  0  0  0  0  0  0  0
    3.8107    1.5138   -0.4894 H   0  0  0  0  0  0  0  0  0  0  0  0
   -4.3755    1.5661    0.9681 H   0  0  0  0  0  0  0  0  0  0  0  0
   -4.9278    1.8852   -0.6899 H   0  0  0  0  0  0  0  0  0  0  0  0
   -4.7541   -0.5005   -1.7342 H   0  0  0  0  0  0  0  0  0  0  0  0
   -2.9357   -1.1983    2.1170 H   0  0  0  0  0  0  0  0  0  0  0  0
   -3.8067    4.1032   -0.6335 H   0  0  0  0  0  0  0  0  0  0  0  0
   -4.9690    3.9229    0.6802 H   0  0  0  0  0  0  0  0  0  0  0  0
   -6.6514   -1.9401   -1.0870 H   0  0  0  0  0  0  0  0  0  0  0  0
   -4.8306   -2.6437    2.7411 H   0  0  0  0  0  0  0  0  0  0  0  0
    5.2664   -0.4653    2.2711 H   0  0  0  0  0  0  0  0  0  0  0  0
    5.7978    0.8613   -1.7961 H   0  0  0  0  0  0  0  0  0  0  0  0
   -6.6947   -3.0175    1.1473 H   0  0  0  0  0  0  0  0  0  0  0  0
   -3.0790    3.3183    2.2414 H   0  0  0  0  0  0  0  0  0  0  0  0
   -2.9153    4.9357    1.5424 H   0  0  0  0  0  0  0  0  0  0  0  0
   -1.9216    3.6128    0.9298 H   0  0  0  0  0  0  0  0  0  0  0  0
    7.6474   -1.1172    2.3622 H   0  0  0  0  0  0  0  0  0  0  0  0
    8.1768    0.2050   -1.6920 H   0  0  0  0  0  0  0  0  0  0  0  0
    9.1071   -0.7849    0.3838 H   0  0  0  0  0  0  0  0  0  0  0  0
  1 13  2  0  0  0  0
  2  7  1  0  0  0  0
  2  8  1  0  0  0  0
  2 10  1  0  0  0  0
  3  4  1  0  0  0  0
  3 12  1  0  0  0  0
  3 13  1  0  0  0  0
  4  5  1  0  0  0  0
  4  6  1  0  0  0  0
  4 28  1  0  0  0  0
  5  7  1  0  0  0  0
  5  9  1  0  0  0  0
  5 29  1  0  0  0  0
  6  8  1  0  0  0  0
  6 30  1  0  0  0  0
  6 31  1  0  0  0  0
  7 32  1  0  0  0  0
  7 33  1  0  0  0  0
  8 34  1  0  0  0  0
  8 35  1  0  0  0  0
  9 36  1  0  0  0  0
  9 37  1  0  0  0  0
  9 38  1  0  0  0  0
 10 11  1  0  0  0  0
 10 39  1  0  0  0  0
 10 40  1  0  0  0  0
 11 15  1  0  0  0  0
 11 41  1  0  0  0  0
 11 42  1  0  0  0  0
 12 16  2  0  0  0  0
 12 17  1  0  0  0  0
 13 14  1  0  0  0  0
 14 18  1  0  0  0  0
 14 43  1  0  0  0  0
 14 44  1  0  0  0  0
 15 21  2  0  0  0  0
 15 22  1  0  0  0  0
 16 19  1  0  0  0  0
 16 45  1  0  0  0  0
 17 20  2  0  0  0  0
 17 46  1  0  0  0  0
 18 24  1  0  0  0  0
 18 47  1  0  0  0  0
 18 48  1  0  0  0  0
 19 23  2  0  0  0  0
 19 49  1  0  0  0  0
 20 23  1  0  0  0  0
 20 50  1  0  0  0  0
 21 25  1  0  0  0  0
 21 51  1  0  0  0  0
 22 26  2  0  0  0  0
 22 52  1  0  0  0  0
 23 53  1  0  0  0  0
 24 54  1  0  0  0  0
 24 55  1  0  0  0  0
 24 56  1  0  0  0  0
 25 27  2  0  0  0  0
 25 57  1  0  0  0  0
 26 27  1  0  0  0  0
 26 58  1  0  0  0  0
 27 59  1  0  0  0  0
M  END
> <PUBCHEM_COMPOUND_CID>
86130531

> <PUBCHEM_CONFORMER_RMSD>
1

> <PUBCHEM_CONFORMER_DIVERSEORDER>
1
53
51
91
71
24
118
87
20
33
100
86
75
115
67
43
19
124
116
108
90
104
44
72
95
80
111
39
29
73
123
70
81
55
114
93
69
49
27
106
57
61
89
56
46
48
121
97
65
85
105
99
68
110
125
63
58
28
45
42
103
23
37
117
112
31
109
83
77
94
52
18
60
17
32
92
10
101
78
21
119
14
16
41
4
62
26
98
8
3
54
82
59
66
79
84
120
96
22
34
13
50
35
88
107
64
7
47
9
76
38
6
15
25
122
74
113
30
102
40
5
11
36
12
2

> <PUBCHEM_MMFF94_PARTIAL_CHARGES>
32
1 -0.57
10 0.27
11 0.14
12 0.12
13 0.57
14 0.06
15 -0.14
16 -0.15
17 -0.15
19 -0.15
2 -0.81
20 -0.15
21 -0.15
22 -0.15
23 -0.15
25 -0.15
26 -0.15
27 -0.15
3 -0.48
4 0.3
45 0.15
46 0.15
49 0.15
50 0.15
51 0.15
52 0.15
53 0.15
57 0.15
58 0.15
59 0.15
7 0.27
8 0.27

> <PUBCHEM_EFFECTIVE_ROTOR_COUNT>
9.2

> <PUBCHEM_PHARMACOPHORE_FEATURES>
6
1 1 acceptor
1 2 cation
1 24 hydrophobe
6 12 16 17 19 20 23 rings
6 15 21 22 25 26 27 rings
6 2 4 5 6 7 8 rings

> <PUBCHEM_HEAVY_ATOM_COUNT>
27

> <PUBCHEM_ATOM_DEF_STEREO_COUNT>
0

> <PUBCHEM_ATOM_UDEF_STEREO_COUNT>
2

> <PUBCHEM_BOND_DEF_STEREO_COUNT>
0

> <PUBCHEM_BOND_UDEF_STEREO_COUNT>
0

> <PUBCHEM_ISOTOPIC_ATOM_COUNT>
0

> <PUBCHEM_COMPONENT_COUNT>
1

> <PUBCHEM_CACTVS_TAUTO_COUNT>
1

> <PUBCHEM_CONFORMER_ID>
05223F6300000001

> <PUBCHEM_MMFF94_ENERGY>
79.4236

> <PUBCHEM_FEATURE_SELFOVERLAP>
30.447

> <PUBCHEM_SHAPE_FINGERPRINT>
10 15 18201434826967102498
10290309 65 17774730757601169582
10299344 5 17675924296939166874
10906281 52 12468897777149855821
11101153 10 18189342427475152756
11315181 36 17676489470794012879
11524674 6 18339642342835468858
11578080 2 17630343952099049739
11646440 116 17418378013100095464
12082328 90 18408040698531234006
12107698 1 18410575123407903872
12166972 35 16950564432305350916
12236239 1 17240480329607070510
12596602 18 17894627076387641296
12741549 16 17774729762122668747
13073987 5 18411417272627815394
13540713 4 17843700875801099591
13631057 29 18260264174830628539
14068700 675 18114466785699015919
14150022 121 17988656181509018089
14713325 29 18200599099040225313
14856354 85 18187087282076817158
15183329 4 17530962471940359506
1577012 14 17894916205339010300
15799311 1 17168429264610548946
15876981 60 18040721350628094173
17844677 252 18411983585466809192
17980427 23 17821741519570161813
18927931 339 18408325514417871207
21033648 144 18194678168563027237
21033648 29 17774989173056229400
21130935 74 18261105237450454898
21236236 1 18260548913634187865
21315759 40 17603302653309426706
21927370 108 18114476634264799753
23081809 10 17894353263927862288
23522609 53 17387156216562467548
23559900 14 17386568118884086533
24771293 8 12607103133989070362
249057 25 17821739346738976028
3009799 131 12252175299262477710
3663271 9 18186237312913092384
497634 4 17749102288102234550
5104073 3 18267869389201351234
54039377 194 16516256261967647891
5969126 39 18343294891030061893
9896288 288 18410859824358546123
9996256 80 17822006502484410794

> <PUBCHEM_SHAPE_MULTIPOLES>
539.82
19.98
2.87
1.68
39.81
3.53
-0.28
-5.33
5
-7.83
0.83
-0.31
-0.63
0.23

> <PUBCHEM_SHAPE_SELFOVERLAP>
1122.125

> <PUBCHEM_SHAPE_VOLUME>
304.5

> <PUBCHEM_COORDINATE_TYPE>
2
5
10

$$$$


101598717
  -OEChem-12311612323D

 56 58  0     1  0  0  0  0  0999 V2000
   -2.1890    2.6191   -0.5425 O   0  0  0  0  0  0  0  0  0  0  0  0
    1.5239    0.1048   -0.3380 N   0  0  1  0  0  0  0  0  0  0  0  0
   -2.6973    0.3528   -0.0670 N   0  0  0  0  0  0  0  0  0  0  0  0
   -1.3850   -0.2470   -0.1625 C   0  0  1  0  0  0  0  0  0  0  0  0
   -0.6844    0.0946   -1.4939 C   0  0  1  0  0  0  0  0  0  0  0  0
   -0.5264    0.2072    1.0226 C   0  0  0  0  0  0  0  0  0  0  0  0
    0.7715   -0.4127   -1.4886 C   0  0  0  0  0  0  0  0  0  0  0  0
    0.9041   -0.3162    0.9233 C   0  0  0  0  0  0  0  0  0  0  0  0
   -1.4215   -0.4970   -2.7009 C   0  0  0  0  0  0  0  0  0  0  0  0
    2.9168   -0.3391   -0.3957 C   0  0  0  0  0  0  0  0  0  0  0  0
    3.8294    0.6196    0.3697 C   0  0  0  0  0  0  0  0  0  0  0  0
   -3.8392   -0.5463    0.0860 C   0  0  0  0  0  0  0  0  0  0  0  0
   -2.9074    1.7640   -0.0187 C   0  0  0  0  0  0  0  0  0  0  0  0
   -4.1687    2.2018    0.7203 C   0  0  0  0  0  0  0  0  0  0  0  0
    5.2718    0.1854    0.2997 C   0  0  0  0  0  0  0  0  0  0  0  0
   -4.9002   -0.4860   -0.8175 C   0  0  0  0  0  0  0  0  0  0  0  0
   -3.8683   -1.4645    1.1355 C   0  0  0  0  0  0  0  0  0  0  0  0
   -4.0260    3.5694    1.3710 C   0  0  0  0  0  0  0  0  0  0  0  0
   -5.9905   -1.3438   -0.6714 C   0  0  0  0  0  0  0  0  0  0  0  0
   -4.9584   -2.3225    1.2816 C   0  0  0  0  0  0  0  0  0  0  0  0
    5.7898   -0.6731    1.2692 C   0  0  0  0  0  0  0  0  0  0  0  0
    6.0879    0.6424   -0.7349 C   0  0  0  0  0  0  0  0  0  0  0  0
   -6.0194   -2.2621    0.3782 C   0  0  0  0  0  0  0  0  0  0  0  0
    7.1242   -1.0746    1.2044 C   0  0  0  0  0  0  0  0  0  0  0  0
    7.4222    0.2412   -0.7999 C   0  0  0  0  0  0  0  0  0  0  0  0
    7.9403   -0.6174    0.1697 C   0  0  0  0  0  0  0  0  0  0  0  0
   -1.4787   -1.3407   -0.1113 H   0  0  0  0  0  0  0  0  0  0  0  0
   -0.6426    1.1804   -1.6366 H   0  0  0  0  0  0  0  0  0  0  0  0
   -0.9732   -0.1365    1.9636 H   0  0  0  0  0  0  0  0  0  0  0  0
   -0.4920    1.3026    1.0847 H   0  0  0  0  0  0  0  0  0  0  0  0
    0.7872   -1.5113   -1.4962 H   0  0  0  0  0  0  0  0  0  0  0  0
    1.2503   -0.0773   -2.4179 H   0  0  0  0  0  0  0  0  0  0  0  0
    1.4589    0.0775    1.7818 H   0  0  0  0  0  0  0  0  0  0  0  0
    0.9008   -1.4105    1.0159 H   0  0  0  0  0  0  0  0  0  0  0  0
   -1.5211   -1.5840   -2.6122 H   0  0  0  0  0  0  0  0  0  0  0  0
   -0.8820   -0.2817   -3.6295 H   0  0  0  0  0  0  0  0  0  0  0  0
   -2.4237   -0.0693   -2.7998 H   0  0  0  0  0  0  0  0  0  0  0  0
    3.0282   -1.3712   -0.0366 H   0  0  0  0  0  0  0  0  0  0  0  0
    3.2620   -0.3475   -1.4390 H   0  0  0  0  0  0  0  0  0  0  0  0
    3.5392    0.6940    1.4245 H   0  0  0  0  0  0  0  0  0  0  0  0
    3.7362    1.6361   -0.0354 H   0  0  0  0  0  0  0  0  0  0  0  0
   -4.4137    1.4911    1.5155 H   0  0  0  0  0  0  0  0  0  0  0  0
   -4.9980    2.2289    0.0059 H   0  0  0  0  0  0  0  0  0  0  0  0
   -4.8873    0.2183   -1.6452 H   0  0  0  0  0  0  0  0  0  0  0  0
   -3.0559   -1.5200    1.8547 H   0  0  0  0  0  0  0  0  0  0  0  0
   -3.8543    4.3474    0.6200 H   0  0  0  0  0  0  0  0  0  0  0  0
   -3.1812    3.5837    2.0675 H   0  0  0  0  0  0  0  0  0  0  0  0
   -4.9347    3.8258    1.9243 H   0  0  0  0  0  0  0  0  0  0  0  0
   -6.8158   -1.2981   -1.3759 H   0  0  0  0  0  0  0  0  0  0  0  0
   -4.9821   -3.0360    2.1000 H   0  0  0  0  0  0  0  0  0  0  0  0
    5.1632   -1.0376    2.0789 H   0  0  0  0  0  0  0  0  0  0  0  0
    5.6953    1.3101   -1.4972 H   0  0  0  0  0  0  0  0  0  0  0  0
   -6.8682   -2.9300    0.4920 H   0  0  0  0  0  0  0  0  0  0  0  0
    7.5275   -1.7435    1.9590 H   0  0  0  0  0  0  0  0  0  0  0  0
    8.0576    0.5967   -1.6058 H   0  0  0  0  0  0  0  0  0  0  0  0
    8.9791   -0.9301    0.1189 H   0  0  0  0  0  0  0  0  0  0  0  0
  1 13  2  0  0  0  0
  2  7  1  0  0  0  0
  2  8  1  0  0  0  0
  2 10  1  0  0  0  0
  3  4  1  0  0  0  0
  3 12  1  0  0  0  0
  3 13  1  0  0  0  0
  4  5  1  0  0  0  0
  4  6  1  0  0  0  0
  4 27  1  0  0  0  0
  5  7  1  0  0  0  0
  5  9  1  0  0  0  0
  5 28  1  0  0  0  0
  6  8  1  0  0  0  0
  6 29  1  0  0  0  0
  6 30  1  0  0  0  0
  7 31  1  0  0  0  0
  7 32  1  0  0  0  0
  8 33  1  0  0  0  0
  8 34  1  0  0  0  0
  9 35  1  0  0  0  0
  9 36  1  0  0  0  0
  9 37  1  0  0  0  0
 10 11  1  0  0  0  0
 10 38  1  0  0  0  0
 10 39  1  0  0  0  0
 11 15  1  0  0  0  0
 11 40  1  0  0  0  0
 11 41  1  0  0  0  0
 12 16  2  0  0  0  0
 12 17  1  0  0  0  0
 13 14  1  0  0  0  0
 14 18  1  0  0  0  0
 14 42  1  0  0  0  0
 14 43  1  0  0  0  0
 15 21  2  0  0  0  0
 15 22  1  0  0  0  0
 16 19  1  0  0  0  0
 16 44  1  0  0  0  0
 17 20  2  0  0  0  0
 17 45  1  0  0  0  0
 18 46  1  0  0  0  0
 18 47  1  0  0  0  0
 18 48  1  0  0  0  0
 19 23  2  0  0  0  0
 19 49  1  0  0  0  0
 20 23  1  0  0  0  0
 20 50  1  0  0  0  0
 21 24  1  0  0  0  0
 21 51  1  0  0  0  0
 22 25  2  0  0  0  0
 22 52  1  0  0  0  0
 23 53  1  0  0  0  0
 24 26  2  0  0  0  0
 24 54  1  0  0  0  0
 25 26  1  0  0  0  0
 25 55  1  0  0  0  0
 26 56  1  0  0  0  0
M  END
> <PUBCHEM_COMPOUND_CID>
101598717

> <PUBCHEM_CONFORMER_RMSD>
0.8

> <PUBCHEM_CONFORMER_DIVERSEORDER>
1
15
72
75
67
71
16
76
79
46
3
44
57
68
40
53
8
54
41
61
60
33
45
39
74
55
66
18
24
48
56
84
23
32
63
73
64
51
83
19
70
36
82
58
38
49
25
20
34
59
30
42
9
26
65
80
22
7
29
35
28
78
43
21
52
10
31
13
17
62
12
77
4
14
50
11
81
69
37
27
2
47
5
6

> <PUBCHEM_MMFF94_PARTIAL_CHARGES>
32
1 -0.57
10 0.27
11 0.14
12 0.12
13 0.57
14 0.06
15 -0.14
16 -0.15
17 -0.15
19 -0.15
2 -0.81
20 -0.15
21 -0.15
22 -0.15
23 -0.15
24 -0.15
25 -0.15
26 -0.15
3 -0.48
4 0.3
44 0.15
45 0.15
49 0.15
50 0.15
51 0.15
52 0.15
53 0.15
54 0.15
55 0.15
56 0.15
7 0.27
8 0.27

> <PUBCHEM_EFFECTIVE_ROTOR_COUNT>
8.2

> <PUBCHEM_PHARMACOPHORE_FEATURES>
6
1 1 acceptor
1 18 hydrophobe
1 2 cation
6 12 16 17 19 20 23 rings
6 15 21 22 24 25 26 rings
6 2 4 5 6 7 8 rings

> <PUBCHEM_HEAVY_ATOM_COUNT>
26

> <PUBCHEM_ATOM_DEF_STEREO_COUNT>
1

> <PUBCHEM_ATOM_UDEF_STEREO_COUNT>
1

> <PUBCHEM_BOND_DEF_STEREO_COUNT>
0

> <PUBCHEM_BOND_UDEF_STEREO_COUNT>
0

> <PUBCHEM_ISOTOPIC_ATOM_COUNT>
0

> <PUBCHEM_COMPONENT_COUNT>
1

> <PUBCHEM_CACTVS_TAUTO_COUNT>
4

> <PUBCHEM_CONFORMER_ID>
060E45FD00000001

> <PUBCHEM_MMFF94_ENERGY>
79.86

> <PUBCHEM_FEATURE_SELFOVERLAP>
30.447

> <PUBCHEM_SHAPE_FINGERPRINT>
10 15 17917425467316950514
10299344 5 18040998432617618586
10906281 52 13551734198789159005
11101153 10 18337114586861530164
11315181 36 18041000661019661001
11524674 6 18272088339703036830
11578080 2 17201940141431206201
11646440 116 16773799212583906674
12082328 90 18411700964113125470
12107698 1 18342457075158228376
12166972 35 17458626760830952636
12236239 1 17749105608180649390
12403259 118 18272373057332050260
12596602 18 18113615699206075120
12616971 3 17774714364248491852
13288520 33 18040433317520664599
13540713 4 17558570027423242965
13631057 29 18334855043753995331
13782708 43 18202564007801977130
14068700 675 18261957470277254295
14251764 18 18040154020688166680
14856354 85 18341333391454705559
15021287 119 17917425475253166660
15183329 4 17894347766322205666
1577012 14 18186806851351925368
15876981 60 18260835877727588885
17844677 252 18343585166041723936
17980427 23 18114756974774201541
18927931 339 18412546535319802375
19489759 90 18408322181121978553
21033648 29 17274244081254515328
21130935 74 18336542730184751858
21150785 3 17458345273654907686
21236236 1 18408605846748366033
21315759 40 17821445751707121818
23081809 10 18186243914209358088
23522609 53 17751387043997230236
23559900 14 17896035619270287857
23569943 247 17024293134226724906
249057 25 18113628897477338300
2838139 119 13038902227371742058
3009799 131 13406786748872253238
3633792 109 16950275230492661119
3663271 9 18334294250121777728
4325135 7 18187082871351112810
497634 4 17967808336390060500
5104073 3 18129669577761632634
54039377 194 17241054331313711715
563151 97 15719937039560354399
5969126 39 18201994448484562365
9896288 288 18342181029663550099
9996256 80 18186237312739044658

> <PUBCHEM_SHAPE_MULTIPOLES>
519.24
20.41
2.36
1.61
35.24
2
-0.64
-6.44
3.87
-6.05
1.09
-0.4
-0.24
-0.85

> <PUBCHEM_SHAPE_SELFOVERLAP>
1083.115

> <PUBCHEM_SHAPE_VOLUME>
291.8

> <PUBCHEM_COORDINATE_TYPE>
2
5
10

$$$$

86280430
  -OEChem-12311612333D

 56 58  0     0  0  0  0  0  0999 V2000
   -6.7561   -3.0210    0.4723 F   0  0  0  0  0  0  0  0  0  0  0  0
   -1.8245    2.5156   -1.1057 O   0  0  0  0  0  0  0  0  0  0  0  0
    1.8561    0.0008   -0.4730 N   0  0  0  0  0  0  0  0  0  0  0  0
   -2.3631    0.3361   -0.3497 N   0  0  0  0  0  0  0  0  0  0  0  0
   -1.0524   -0.2614   -0.2925 C   0  0  0  0  0  0  0  0  0  0  0  0
   -0.3277   -0.1138   -1.6301 C   0  0  0  0  0  0  0  0  0  0  0  0
   -0.2164    0.3517    0.8313 C   0  0  0  0  0  0  0  0  0  0  0  0
    1.2085   -0.2048    0.8300 C   0  0  0  0  0  0  0  0  0  0  0  0
    1.1013   -0.6538   -1.5504 C   0  0  0  0  0  0  0  0  0  0  0  0
    3.2338   -0.4900   -0.4425 C   0  0  0  0  0  0  0  0  0  0  0  0
    4.1701    0.5446    0.1827 C   0  0  0  0  0  0  0  0  0  0  0  0
   -3.5108   -0.5412   -0.1352 C   0  0  0  0  0  0  0  0  0  0  0  0
   -2.5727    1.7383   -0.5074 C   0  0  0  0  0  0  0  0  0  0  0  0
   -3.8707    2.2689    0.0971 C   0  0  0  0  0  0  0  0  0  0  0  0
    5.5980    0.0599    0.2002 C   0  0  0  0  0  0  0  0  0  0  0  0
   -3.5959   -1.3064    1.0278 C   0  0  0  0  0  0  0  0  0  0  0  0
   -4.5224   -0.6134   -1.0932 C   0  0  0  0  0  0  0  0  0  0  0  0
   -3.7533    3.7195    0.5669 C   0  0  0  0  0  0  0  0  0  0  0  0
    6.0778   -0.6578    1.2958 C   0  0  0  0  0  0  0  0  0  0  0  0
    6.4389    0.3295   -0.8794 C   0  0  0  0  0  0  0  0  0  0  0  0
   -4.6922   -2.1438    1.2331 C   0  0  0  0  0  0  0  0  0  0  0  0
   -5.6189   -1.4508   -0.8879 C   0  0  0  0  0  0  0  0  0  0  0  0
   -2.7017    3.8699    1.6543 C   0  0  0  0  0  0  0  0  0  0  0  0
   -5.7038   -2.2160    0.2754 C   0  0  0  0  0  0  0  0  0  0  0  0
    7.3987   -1.1059    1.3117 C   0  0  0  0  0  0  0  0  0  0  0  0
    7.7597   -0.1186   -0.8636 C   0  0  0  0  0  0  0  0  0  0  0  0
    8.2396   -0.8362    0.2321 C   0  0  0  0  0  0  0  0  0  0  0  0
   -1.1498   -1.3380   -0.0967 H   0  0  0  0  0  0  0  0  0  0  0  0
   -0.2763    0.9314   -1.9526 H   0  0  0  0  0  0  0  0  0  0  0  0
   -0.6859    0.1527    1.8023 H   0  0  0  0  0  0  0  0  0  0  0  0
   -0.1660    1.4435    0.7327 H   0  0  0  0  0  0  0  0  0  0  0  0
   -0.8782   -0.6494   -2.4136 H   0  0  0  0  0  0  0  0  0  0  0  0
    1.1820   -1.2713    1.0904 H   0  0  0  0  0  0  0  0  0  0  0  0
    1.7622    0.3070    1.6246 H   0  0  0  0  0  0  0  0  0  0  0  0
    1.5857   -0.4645   -2.5162 H   0  0  0  0  0  0  0  0  0  0  0  0
    1.0781   -1.7420   -1.4050 H   0  0  0  0  0  0  0  0  0  0  0  0
    3.5884   -0.6667   -1.4677 H   0  0  0  0  0  0  0  0  0  0  0  0
    3.3075   -1.4590    0.0694 H   0  0  0  0  0  0  0  0  0  0  0  0
    3.8720    0.7865    1.2098 H   0  0  0  0  0  0  0  0  0  0  0  0
    4.1146    1.4906   -0.3723 H   0  0  0  0  0  0  0  0  0  0  0  0
   -4.1780    1.6630    0.9553 H   0  0  0  0  0  0  0  0  0  0  0  0
   -4.6522    2.2067   -0.6679 H   0  0  0  0  0  0  0  0  0  0  0  0
   -2.8227   -1.2557    1.7895 H   0  0  0  0  0  0  0  0  0  0  0  0
   -4.4647   -0.0299   -2.0084 H   0  0  0  0  0  0  0  0  0  0  0  0
   -3.5026    4.3757   -0.2744 H   0  0  0  0  0  0  0  0  0  0  0  0
   -4.7240    4.0492    0.9547 H   0  0  0  0  0  0  0  0  0  0  0  0
    5.4315   -0.8759    2.1419 H   0  0  0  0  0  0  0  0  0  0  0  0
    6.0762    0.8861   -1.7395 H   0  0  0  0  0  0  0  0  0  0  0  0
   -4.7599   -2.7382    2.1395 H   0  0  0  0  0  0  0  0  0  0  0  0
   -6.4055   -1.5089   -1.6343 H   0  0  0  0  0  0  0  0  0  0  0  0
   -2.9144    3.2095    2.5012 H   0  0  0  0  0  0  0  0  0  0  0  0
   -2.6945    4.8998    2.0259 H   0  0  0  0  0  0  0  0  0  0  0  0
   -1.6955    3.6460    1.2888 H   0  0  0  0  0  0  0  0  0  0  0  0
    7.7723   -1.6652    2.1645 H   0  0  0  0  0  0  0  0  0  0  0  0
    8.4145    0.0908   -1.7044 H   0  0  0  0  0  0  0  0  0  0  0  0
    9.2680   -1.1853    0.2443 H   0  0  0  0  0  0  0  0  0  0  0  0
  1 24  1  0  0  0  0
  2 13  2  0  0  0  0
  3  8  1  0  0  0  0
  3  9  1  0  0  0  0
  3 10  1  0  0  0  0
  4  5  1  0  0  0  0
  4 12  1  0  0  0  0
  4 13  1  0  0  0  0
  5  6  1  0  0  0  0
  5  7  1  0  0  0  0
  5 28  1  0  0  0  0
  6  9  1  0  0  0  0
  6 29  1  0  0  0  0
  6 32  1  0  0  0  0
  7  8  1  0  0  0  0
  7 30  1  0  0  0  0
  7 31  1  0  0  0  0
  8 33  1  0  0  0  0
  8 34  1  0  0  0  0
  9 35  1  0  0  0  0
  9 36  1  0  0  0  0
 10 11  1  0  0  0  0
 10 37  1  0  0  0  0
 10 38  1  0  0  0  0
 11 15  1  0  0  0  0
 11 39  1  0  0  0  0
 11 40  1  0  0  0  0
 12 16  2  0  0  0  0
 12 17  1  0  0  0  0
 13 14  1  0  0  0  0
 14 18  1  0  0  0  0
 14 41  1  0  0  0  0
 14 42  1  0  0  0  0
 15 19  2  0  0  0  0
 15 20  1  0  0  0  0
 16 21  1  0  0  0  0
 16 43  1  0  0  0  0
 17 22  2  0  0  0  0
 17 44  1  0  0  0  0
 18 23  1  0  0  0  0
 18 45  1  0  0  0  0
 18 46  1  0  0  0  0
 19 25  1  0  0  0  0
 19 47  1  0  0  0  0
 20 26  2  0  0  0  0
 20 48  1  0  0  0  0
 21 24  2  0  0  0  0
 21 49  1  0  0  0  0
 22 24  1  0  0  0  0
 22 50  1  0  0  0  0
 23 51  1  0  0  0  0
 23 52  1  0  0  0  0
 23 53  1  0  0  0  0
 25 27  2  0  0  0  0
 25 54  1  0  0  0  0
 26 27  1  0  0  0  0
 26 55  1  0  0  0  0
 27 56  1  0  0  0  0
M  END
> <PUBCHEM_COMPOUND_CID>
86280430

> <PUBCHEM_CONFORMER_RMSD>
1

> <PUBCHEM_CONFORMER_DIVERSEORDER>
1
51
46
59
42
20
47
64
62
14
49
44
22
31
35
19
40
38
52
36
39
50
6
10
54
34
12
33
55
9
27
23
53
58
26
61
60
45
32
37
17
48
57
4
28
41
2
13
24
30
63
8
21
43
25
29
5
18
11
16
7
15
56
3

> <PUBCHEM_MMFF94_PARTIAL_CHARGES>
32
1 -0.19
10 0.27
11 0.14
12 0.12
13 0.57
14 0.06
15 -0.14
16 -0.15
17 -0.15
19 -0.15
2 -0.57
20 -0.15
21 -0.15
22 -0.15
24 0.19
25 -0.15
26 -0.15
27 -0.15
3 -0.81
4 -0.48
43 0.15
44 0.15
47 0.15
48 0.15
49 0.15
5 0.3
50 0.15
54 0.15
55 0.15
56 0.15
8 0.27
9 0.27

> <PUBCHEM_EFFECTIVE_ROTOR_COUNT>
9.2

> <PUBCHEM_PHARMACOPHORE_FEATURES>
6
1 2 acceptor
1 23 hydrophobe
1 3 cation
6 12 16 17 21 22 24 rings
6 15 19 20 25 26 27 rings
6 3 5 6 7 8 9 rings

> <PUBCHEM_HEAVY_ATOM_COUNT>
27

> <PUBCHEM_ATOM_DEF_STEREO_COUNT>
0

> <PUBCHEM_ATOM_UDEF_STEREO_COUNT>
0

> <PUBCHEM_BOND_DEF_STEREO_COUNT>
0

> <PUBCHEM_BOND_UDEF_STEREO_COUNT>
0

> <PUBCHEM_ISOTOPIC_ATOM_COUNT>
0

> <PUBCHEM_COMPONENT_COUNT>
1

> <PUBCHEM_CACTVS_TAUTO_COUNT>
4

> <PUBCHEM_CONFORMER_ID>
052488EE00000001

> <PUBCHEM_MMFF94_ENERGY>
75.7089

> <PUBCHEM_FEATURE_SELFOVERLAP>
30.447

> <PUBCHEM_SHAPE_FINGERPRINT>
10290309 65 17632303311331416646
10299344 5 17894911815972130426
10319688 45 18200025287146330023
10411042 1 18267022937832151491
10906281 52 12468899967398644941
11007060 377 16805608088101927032
11101153 10 18335708307431962524
11315181 36 17967534583732879991
11524674 6 18060137682345382214
11646440 116 17060338539957665306
12082328 90 18411699860322393814
12107698 1 18412262865393406776
12166972 35 17313103098370289956
12236239 1 17531242872495056246
12741549 16 17489310828544738771
13540713 4 17630624322409426855
13631057 29 18334573555697067411
13673619 4 18130505326862776881
13782708 43 18272087214842883606
14068700 675 18261957461481500591
14150022 121 17845947264404586377
14856354 85 18272089447693290599
15183329 4 17748824099635374562
15419008 47 17774997994787433912
1577012 14 18040720234743204844
15876981 60 18187932750410027436
17844677 252 18342176683214857136
17980427 23 18040727943354959532
18681886 176 17459184234632258690
18927931 339 18410856577231414671
19489759 90 18334856104262445596
21033648 29 17560221558450166048
21130935 74 18336821989032223178
21236236 1 18335421244448864281
21315759 40 17822008697365595366
21792961 116 17632016343365053910
21927370 108 18187659024350247153
22224240 67 16271931540495400615
23081809 10 18040720243280209900
23522609 53 17751385931732549924
23559900 14 17677612136580088181
23569943 247 17170378630096985522
24771293 8 12031203124052329578
249057 25 17967824851156888924
3009799 131 12829482667087544846
3418910 222 18338524148585238900
3633792 109 16515678970263414590
3663271 9 18261109648191443768
4073 2 18339084770364951910
497634 4 18040991826024104604
5104073 3 18199190590142815986
54039377 194 17313672663323037251
563151 97 15286183000758329327
5969126 39 18272081717521888085
9896288 288 18340491075880652955
9996256 80 18040995121055278558

> <PUBCHEM_SHAPE_MULTIPOLES>
532.54
21.38
3.12
1.41
39.65
3.25
0
-10.48
2.91
-9.02
1.31
0.14
0.01
-0.48

> <PUBCHEM_SHAPE_SELFOVERLAP>
1112.477

> <PUBCHEM_SHAPE_VOLUME>
300.8

> <PUBCHEM_COORDINATE_TYPE>
2
5
10

$$$$

62300
  -OEChem-12311612373D

 53 55  0     0  0  0  0  0  0999 V2000
   -4.4400   -4.2016   -0.2070 F   0  0  0  0  0  0  0  0  0  0  0  0
   -3.3767    3.2820   -0.0244 O   0  0  0  0  0  0  0  0  0  0  0  0
    1.4744    0.2287    0.4811 N   0  0  0  0  0  0  0  0  0  0  0  0
   -2.6605    1.0230    0.0330 N   0  0  0  0  0  0  0  0  0  0  0  0
   -1.2473    1.2619    0.1886 C   0  0  0  0  0  0  0  0  0  0  0  0
   -0.4594    0.6907   -0.9907 C   0  0  0  0  0  0  0  0  0  0  0  0
   -0.7361    0.6691    1.5013 C   0  0  0  0  0  0  0  0  0  0  0  0
    1.0474    0.8496   -0.7805 C   0  0  0  0  0  0  0  0  0  0  0  0
    0.7799    0.8273    1.6294 C   0  0  0  0  0  0  0  0  0  0  0  0
    2.9237    0.3439    0.6431 C   0  0  0  0  0  0  0  0  0  0  0  0
    3.6603   -0.3903   -0.4779 C   0  0  0  0  0  0  0  0  0  0  0  0
   -3.1305   -0.3591   -0.0304 C   0  0  0  0  0  0  0  0  0  0  0  0
   -3.6220    2.0735   -0.0619 C   0  0  0  0  0  0  0  0  0  0  0  0
    5.1560   -0.2983   -0.3103 C   0  0  0  0  0  0  0  0  0  0  0  0
   -5.0719    1.6111   -0.1748 C   0  0  0  0  0  0  0  0  0  0  0  0
   -3.4650   -0.9667    1.1430 C   0  0  0  0  0  0  0  0  0  0  0  0
   -3.2032   -0.9454   -1.2586 C   0  0  0  0  0  0  0  0  0  0  0  0
   -6.0527    2.7682   -0.2880 C   0  0  0  0  0  0  0  0  0  0  0  0
    5.8426    0.7575   -0.8910 C   0  0  0  0  0  0  0  0  0  0  0  0
    5.8204   -1.2705    0.4221 C   0  0  0  0  0  0  0  0  0  0  0  0
   -3.9148   -2.2857    1.0825 C   0  0  0  0  0  0  0  0  0  0  0  0
   -3.6530   -2.2643   -1.3193 C   0  0  0  0  0  0  0  0  0  0  0  0
   -4.0087   -2.9346   -0.1488 C   0  0  0  0  0  0  0  0  0  0  0  0
    7.2262    0.8429   -0.7359 C   0  0  0  0  0  0  0  0  0  0  0  0
    7.2040   -1.1849    0.5772 C   0  0  0  0  0  0  0  0  0  0  0  0
    7.9068   -0.1282   -0.0016 C   0  0  0  0  0  0  0  0  0  0  0  0
   -1.0809    2.3464    0.2163 H   0  0  0  0  0  0  0  0  0  0  0  0
   -0.6514   -0.3796   -1.1257 H   0  0  0  0  0  0  0  0  0  0  0  0
   -0.7584    1.1881   -1.9215 H   0  0  0  0  0  0  0  0  0  0  0  0
   -1.2313    1.1503    2.3535 H   0  0  0  0  0  0  0  0  0  0  0  0
   -0.9495   -0.4032    1.5728 H   0  0  0  0  0  0  0  0  0  0  0  0
    1.3149    1.9141   -0.8067 H   0  0  0  0  0  0  0  0  0  0  0  0
    1.5061    0.3726   -1.6502 H   0  0  0  0  0  0  0  0  0  0  0  0
    1.0970    0.3325    2.5557 H   0  0  0  0  0  0  0  0  0  0  0  0
    1.0313    1.8918    1.7271 H   0  0  0  0  0  0  0  0  0  0  0  0
    3.2334    1.3975    0.6762 H   0  0  0  0  0  0  0  0  0  0  0  0
    3.2185   -0.1008    1.6028 H   0  0  0  0  0  0  0  0  0  0  0  0
    3.3578   -1.4456   -0.5069 H   0  0  0  0  0  0  0  0  0  0  0  0
    3.4359    0.0139   -1.4700 H   0  0  0  0  0  0  0  0  0  0  0  0
   -5.1890    0.9870   -1.0659 H   0  0  0  0  0  0  0  0  0  0  0  0
   -5.3383    1.0296    0.7131 H   0  0  0  0  0  0  0  0  0  0  0  0
   -3.4055   -0.4616    2.1013 H   0  0  0  0  0  0  0  0  0  0  0  0
   -2.9399   -0.4235   -2.1725 H   0  0  0  0  0  0  0  0  0  0  0  0
   -5.9992    3.4174    0.5922 H   0  0  0  0  0  0  0  0  0  0  0  0
   -5.8397    3.3797   -1.1711 H   0  0  0  0  0  0  0  0  0  0  0  0
   -7.0770    2.3920   -0.3723 H   0  0  0  0  0  0  0  0  0  0  0  0
    5.3218    1.5207   -1.4623 H   0  0  0  0  0  0  0  0  0  0  0  0
    5.2817   -2.0961    0.8784 H   0  0  0  0  0  0  0  0  0  0  0  0
   -4.1944   -2.8067    1.9933 H   0  0  0  0  0  0  0  0  0  0  0  0
   -3.7289   -2.7688   -2.2780 H   0  0  0  0  0  0  0  0  0  0  0  0
    7.7734    1.6662   -1.1859 H   0  0  0  0  0  0  0  0  0  0  0  0
    7.7342   -1.9407    1.1494 H   0  0  0  0  0  0  0  0  0  0  0  0
    8.9840   -0.0614    0.1196 H   0  0  0  0  0  0  0  0  0  0  0  0
  1 23  1  0  0  0  0
  2 13  2  0  0  0  0
  3  8  1  0  0  0  0
  3  9  1  0  0  0  0
  3 10  1  0  0  0  0
  4  5  1  0  0  0  0
  4 12  1  0  0  0  0
  4 13  1  0  0  0  0
  5  6  1  0  0  0  0
  5  7  1  0  0  0  0
  5 27  1  0  0  0  0
  6  8  1  0  0  0  0
  6 28  1  0  0  0  0
  6 29  1  0  0  0  0
  7  9  1  0  0  0  0
  7 30  1  0  0  0  0
  7 31  1  0  0  0  0
  8 32  1  0  0  0  0
  8 33  1  0  0  0  0
  9 34  1  0  0  0  0
  9 35  1  0  0  0  0
 10 11  1  0  0  0  0
 10 36  1  0  0  0  0
 10 37  1  0  0  0  0
 11 14  1  0  0  0  0
 11 38  1  0  0  0  0
 11 39  1  0  0  0  0
 12 16  2  0  0  0  0
 12 17  1  0  0  0  0
 13 15  1  0  0  0  0
 14 19  2  0  0  0  0
 14 20  1  0  0  0  0
 15 18  1  0  0  0  0
 15 40  1  0  0  0  0
 15 41  1  0  0  0  0
 16 21  1  0  0  0  0
 16 42  1  0  0  0  0
 17 22  2  0  0  0  0
 17 43  1  0  0  0  0
 18 44  1  0  0  0  0
 18 45  1  0  0  0  0
 18 46  1  0  0  0  0
 19 24  1  0  0  0  0
 19 47  1  0  0  0  0
 20 25  2  0  0  0  0
 20 48  1  0  0  0  0
 21 23  2  0  0  0  0
 21 49  1  0  0  0  0
 22 23  1  0  0  0  0
 22 50  1  0  0  0  0
 24 26  2  0  0  0  0
 24 51  1  0  0  0  0
 25 26  1  0  0  0  0
 25 52  1  0  0  0  0
 26 53  1  0  0  0  0
M  END
> <PUBCHEM_COMPOUND_CID>
62300

> <PUBCHEM_CONFORMER_RMSD>
1

> <PUBCHEM_CONFORMER_DIVERSEORDER>
1
8
27
19
33
14
21
4
39
15
3
29
34
36
22
35
30
23
6
11
17
38
2
16
20
31
5
10
26
32
24
28
37
25
12
18
7
9
13

> <PUBCHEM_MMFF94_PARTIAL_CHARGES>
32
1 -0.19
10 0.27
11 0.14
12 0.12
13 0.57
14 -0.14
15 0.06
16 -0.15
17 -0.15
19 -0.15
2 -0.57
20 -0.15
21 -0.15
22 -0.15
23 0.19
24 -0.15
25 -0.15
26 -0.15
3 -0.81
4 -0.48
42 0.15
43 0.15
47 0.15
48 0.15
49 0.15
5 0.3
50 0.15
51 0.15
52 0.15
53 0.15
8 0.27
9 0.27

> <PUBCHEM_EFFECTIVE_ROTOR_COUNT>
8.2

> <PUBCHEM_PHARMACOPHORE_FEATURES>
6
1 18 hydrophobe
1 2 acceptor
1 3 cation
6 12 16 17 21 22 23 rings
6 14 19 20 24 25 26 rings
6 3 5 6 7 8 9 rings

> <PUBCHEM_HEAVY_ATOM_COUNT>
26

> <PUBCHEM_ATOM_DEF_STEREO_COUNT>
0

> <PUBCHEM_ATOM_UDEF_STEREO_COUNT>
0

> <PUBCHEM_BOND_DEF_STEREO_COUNT>
0

> <PUBCHEM_BOND_UDEF_STEREO_COUNT>
0

> <PUBCHEM_ISOTOPIC_ATOM_COUNT>
0

> <PUBCHEM_COMPONENT_COUNT>
1

> <PUBCHEM_CACTVS_TAUTO_COUNT>
1

> <PUBCHEM_CONFORMER_ID>
0000F35C00000001

> <PUBCHEM_MMFF94_ENERGY>
82.4133

> <PUBCHEM_FEATURE_SELFOVERLAP>
30.447

> <PUBCHEM_SHAPE_FINGERPRINT>
10411042 1 18122626321993356295
10595046 47 18334016121024895052
10675989 125 17119457900718775105
11135609 201 10810435128824109895
11315181 36 18260828223810192532
11524674 6 17346595266313782871
11545043 162 18130783482140893504
11796584 16 18341332206597313954
11809386 21 18408600383407995491
12616971 3 16805335387574376564
13540713 4 17915439787682347169
13631057 29 18412543249253362178
13690498 29 18410289259259199719
13782708 43 18343301513801378738
14251751 18 18342741853528862954
14844126 61 18411420635502792811
14856354 85 18412829083505483492
15131766 46 14493336277139187503
15183329 4 14562525194238397938
15250474 111 18188194421788271794
1577012 14 18113059338217717780
15849732 13 17749112141538362389
15876981 60 18260271853905658876
17093844 174 18201432580176895920
17844677 252 18343022229041847456
18927931 339 18342741844485475463
20505436 4 17750229215229207865
20721686 146 16952524682014804029
21054139 6 18187643635551341634
21236236 1 18335140899270170018
220451 1 18040999501948183802
2303208 19 17489314083934853974
23081809 10 17822296790997705108
23402539 116 17967254183078443276
23516275 137 18045800991643939434
23559900 14 18343292678347042144
24771293 8 17749954475210097524
249057 3 18409167688643053077
3610482 184 17822874016800049916
397830 11 17988351694091838096
4015057 19 17241339095971366588
4073 2 18114188536379862522
4403749 210 18129931373841485286
44062 13 18413387639944620385
44802255 64 17968371231279138141
484985 159 18337383929309737655
5265222 85 18341612641642974978
559249 180 18408321064899882461
58260988 114 16661229026147061241
59755656 520 16225772895372760417
6431902 208 18336266842238104946
7495541 125 18343580772759450968
7970288 3 18050004695058701939

> <PUBCHEM_SHAPE_MULTIPOLES>
511.96
19.38
3.18
1.22
37.11
1.74
-0.16
1.25
2.07
-8.53
0.28
-0.29
0.17
-0.61

> <PUBCHEM_SHAPE_SELFOVERLAP>
1078.948

> <PUBCHEM_SHAPE_VOLUME>
287.9

> <PUBCHEM_COORDINATE_TYPE>
2
5
10

$$$$

527015
  -OEChem-12311612383D

 50 52  0     0  0  0  0  0  0999 V2000
   -3.9148   -3.1374    0.1207 O   0  0  0  0  0  0  0  0  0  0  0  0
    1.0358   -0.4651   -0.4370 N   0  0  0  0  0  0  0  0  0  0  0  0
   -3.1313   -0.8953    0.1784 N   0  0  0  0  0  0  0  0  0  0  0  0
   -1.7185   -1.1733    0.2503 C   0  0  0  0  0  0  0  0  0  0  0  0
   -1.1386   -1.4104   -1.1438 C   0  0  0  0  0  0  0  0  0  0  0  0
   -0.9689   -0.0377    0.9477 C   0  0  0  0  0  0  0  0  0  0  0  0
    0.3776   -1.6056   -1.0890 C   0  0  0  0  0  0  0  0  0  0  0  0
    0.5415   -0.2793    0.9343 C   0  0  0  0  0  0  0  0  0  0  0  0
    2.4877   -0.6438   -0.4376 C   0  0  0  0  0  0  0  0  0  0  0  0
    3.1922    0.5943    0.1182 C   0  0  0  0  0  0  0  0  0  0  0  0
   -3.5394    0.5034    0.0693 C   0  0  0  0  0  0  0  0  0  0  0  0
   -4.1169   -1.9205    0.1191 C   0  0  0  0  0  0  0  0  0  0  0  0
    4.6913    0.4320    0.1023 C   0  0  0  0  0  0  0  0  0  0  0  0
   -3.8457    1.1635    1.2219 C   0  0  0  0  0  0  0  0  0  0  0  0
   -3.5861    1.0523   -1.1776 C   0  0  0  0  0  0  0  0  0  0  0  0
   -5.5507   -1.4426    0.0964 C   0  0  0  0  0  0  0  0  0  0  0  0
    5.3287   -0.1166    1.2050 C   0  0  0  0  0  0  0  0  0  0  0  0
    5.4082    0.8341   -1.0146 C   0  0  0  0  0  0  0  0  0  0  0  0
   -4.2354    2.4987    1.1178 C   0  0  0  0  0  0  0  0  0  0  0  0
   -3.9756    2.3876   -1.2816 C   0  0  0  0  0  0  0  0  0  0  0  0
   -4.3003    3.1108   -0.1340 C   0  0  0  0  0  0  0  0  0  0  0  0
    6.7155   -0.2666    1.1903 C   0  0  0  0  0  0  0  0  0  0  0  0
    6.7949    0.6839   -1.0295 C   0  0  0  0  0  0  0  0  0  0  0  0
    7.4485    0.1335    0.0730 C   0  0  0  0  0  0  0  0  0  0  0  0
   -1.5916   -2.0946    0.8343 H   0  0  0  0  0  0  0  0  0  0  0  0
   -1.3528   -0.5659   -1.8086 H   0  0  0  0  0  0  0  0  0  0  0  0
   -1.6042   -2.2907   -1.6034 H   0  0  0  0  0  0  0  0  0  0  0  0
   -1.3021    0.0582    1.9884 H   0  0  0  0  0  0  0  0  0  0  0  0
   -1.1285    0.9314    0.4596 H   0  0  0  0  0  0  0  0  0  0  0  0
    0.6089   -2.5426   -0.5652 H   0  0  0  0  0  0  0  0  0  0  0  0
    0.7444   -1.7091   -2.1176 H   0  0  0  0  0  0  0  0  0  0  0  0
    0.9741    0.6031    1.4124 H   0  0  0  0  0  0  0  0  0  0  0  0
    0.7833   -1.1477    1.5612 H   0  0  0  0  0  0  0  0  0  0  0  0
    2.8332   -0.8082   -1.4669 H   0  0  0  0  0  0  0  0  0  0  0  0
    2.7747   -1.5354    0.1366 H   0  0  0  0  0  0  0  0  0  0  0  0
    2.9128    1.4851   -0.4602 H   0  0  0  0  0  0  0  0  0  0  0  0
    2.9167    0.8107    1.1551 H   0  0  0  0  0  0  0  0  0  0  0  0
   -3.7999    0.6874    2.1957 H   0  0  0  0  0  0  0  0  0  0  0  0
   -3.3541    0.4910   -2.0755 H   0  0  0  0  0  0  0  0  0  0  0  0
   -6.2167   -2.3109    0.0512 H   0  0  0  0  0  0  0  0  0  0  0  0
   -5.7896   -0.8901    1.0082 H   0  0  0  0  0  0  0  0  0  0  0  0
   -5.7471   -0.8333   -0.7889 H   0  0  0  0  0  0  0  0  0  0  0  0
    4.7671   -0.4341    2.0790 H   0  0  0  0  0  0  0  0  0  0  0  0
    4.9080    1.2621   -1.8787 H   0  0  0  0  0  0  0  0  0  0  0  0
   -4.4896    3.0613    2.0112 H   0  0  0  0  0  0  0  0  0  0  0  0
   -4.0307    2.8628   -2.2567 H   0  0  0  0  0  0  0  0  0  0  0  0
   -4.6050    4.1502   -0.2151 H   0  0  0  0  0  0  0  0  0  0  0  0
    7.2245   -0.6957    2.0484 H   0  0  0  0  0  0  0  0  0  0  0  0
    7.3656    0.9951   -1.8995 H   0  0  0  0  0  0  0  0  0  0  0  0
    8.5282    0.0163    0.0614 H   0  0  0  0  0  0  0  0  0  0  0  0
  1 12  2  0  0  0  0
  2  7  1  0  0  0  0
  2  8  1  0  0  0  0
  2  9  1  0  0  0  0
  3  4  1  0  0  0  0
  3 11  1  0  0  0  0
  3 12  1  0  0  0  0
  4  5  1  0  0  0  0
  4  6  1  0  0  0  0
  4 25  1  0  0  0  0
  5  7  1  0  0  0  0
  5 26  1  0  0  0  0
  5 27  1  0  0  0  0
  6  8  1  0  0  0  0
  6 28  1  0  0  0  0
  6 29  1  0  0  0  0
  7 30  1  0  0  0  0
  7 31  1  0  0  0  0
  8 32  1  0  0  0  0
  8 33  1  0  0  0  0
  9 10  1  0  0  0  0
  9 34  1  0  0  0  0
  9 35  1  0  0  0  0
 10 13  1  0  0  0  0
 10 36  1  0  0  0  0
 10 37  1  0  0  0  0
 11 14  2  0  0  0  0
 11 15  1  0  0  0  0
 12 16  1  0  0  0  0
 13 17  2  0  0  0  0
 13 18  1  0  0  0  0
 14 19  1  0  0  0  0
 14 38  1  0  0  0  0
 15 20  2  0  0  0  0
 15 39  1  0  0  0  0
 16 40  1  0  0  0  0
 16 41  1  0  0  0  0
 16 42  1  0  0  0  0
 17 22  1  0  0  0  0
 17 43  1  0  0  0  0
 18 23  2  0  0  0  0
 18 44  1  0  0  0  0
 19 21  2  0  0  0  0
 19 45  1  0  0  0  0
 20 21  1  0  0  0  0
 20 46  1  0  0  0  0
 21 47  1  0  0  0  0
 22 24  2  0  0  0  0
 22 48  1  0  0  0  0
 23 24  1  0  0  0  0
 23 49  1  0  0  0  0
 24 50  1  0  0  0  0
M  END
> <PUBCHEM_COMPOUND_CID>
527015

> <PUBCHEM_CONFORMER_RMSD>
0.8

> <PUBCHEM_CONFORMER_DIVERSEORDER>
1
37
62
51
34
56
41
7
44
64
10
65
48
63
58
14
28
5
19
20
50
55
46
38
6
13
47
53
15
27
67
59
4
42
66
33
49
40
12
31
60
61
32
18
45
8
26
57
25
30
24
29
52
39
22
23
16
21
36
43
2
9
17
35
54
3
11

> <PUBCHEM_MMFF94_PARTIAL_CHARGES>
32
1 -0.57
10 0.14
11 0.12
12 0.57
13 -0.14
14 -0.15
15 -0.15
16 0.06
17 -0.15
18 -0.15
19 -0.15
2 -0.81
20 -0.15
21 -0.15
22 -0.15
23 -0.15
24 -0.15
3 -0.48
38 0.15
39 0.15
4 0.3
43 0.15
44 0.15
45 0.15
46 0.15
47 0.15
48 0.15
49 0.15
50 0.15
7 0.27
8 0.27
9 0.27

> <PUBCHEM_EFFECTIVE_ROTOR_COUNT>
7.2

> <PUBCHEM_PHARMACOPHORE_FEATURES>
5
1 1 acceptor
1 2 cation
6 11 14 15 19 20 21 rings
6 13 17 18 22 23 24 rings
6 2 4 5 6 7 8 rings

> <PUBCHEM_HEAVY_ATOM_COUNT>
24

> <PUBCHEM_ATOM_DEF_STEREO_COUNT>
0

> <PUBCHEM_ATOM_UDEF_STEREO_COUNT>
0

> <PUBCHEM_BOND_DEF_STEREO_COUNT>
0

> <PUBCHEM_BOND_UDEF_STEREO_COUNT>
0

> <PUBCHEM_ISOTOPIC_ATOM_COUNT>
0

> <PUBCHEM_COMPONENT_COUNT>
1

> <PUBCHEM_CACTVS_TAUTO_COUNT>
1

> <PUBCHEM_CONFORMER_ID>
00080AA700000001

> <PUBCHEM_MMFF94_ENERGY>
83.2226

> <PUBCHEM_FEATURE_SELFOVERLAP>
25.373

> <PUBCHEM_SHAPE_FINGERPRINT>
10 15 18187655678159390337
10076449 9 17704063028803261591
10291535 26 18131355168110971393
10319688 45 18125719243395971055
10411042 1 18050850224401928043
105312 117 18060417997621815878
10595046 47 18187364376471417122
10638233 991 17676778673171471668
10675989 125 16312153539634500285
10912923 1 17894627076424415314
11101153 10 18118407473479447733
11315181 36 17967816088779720742
11545043 162 18272929462092331968
12107183 9 17900530182265440730
12166972 35 18335706100050640184
12403259 415 17917989507843983696
12422481 6 17968093067569394436
12596602 18 16153717513586198872
13631057 29 18337951302889556547
14251764 18 18040999557534903796
14466204 15 18410008823807097024
14713325 29 18342182172114132419
14856354 85 18335989782287256199
15021287 119 17095523998367398084
15183329 4 18040714771349404424
1577012 14 18186523198942716764
15778101 99 18340210704409889377
15876981 60 18114185271677353213
17780758 139 13623534524122715101
17844677 252 18337956804694748104
17980427 23 17821738238130641301
19489759 90 18408603686132032634
20281389 69 18407477765372949520
21033648 144 18269273457002031445
21033648 29 17703779332479223832
21236236 1 18408603669157696805
21279426 13 18059585624913566566
21315764 268 18270955872911965728
21859007 373 18058997407905264120
22956985 138 17110166469761826507
23081809 10 17749107803689399608
23198884 109 17894912962047708898
23522609 53 17677069975123188892
23569914 152 15619493160571255284
23569943 247 16155091826232904474
24771293 8 12391502097890120442
249057 25 17895199947483252540
2838139 119 18341604885286141844
497634 4 17894623794616090887
5104073 3 18337678498929499491
5969126 39 18272080661171222303
6327066 14 18116707414440467005
7226269 152 18336827503058217400
7808743 9 18336263423602185073

> <PUBCHEM_SHAPE_MULTIPOLES>
478.08
18.16
2.59
1.27
31.18
0.45
-0.02
4.48
0.98
-6.46
-0.24
0.25
0.29
-0.29

> <PUBCHEM_SHAPE_SELFOVERLAP>
1009.755

> <PUBCHEM_SHAPE_VOLUME>
265.5

> <PUBCHEM_COORDINATE_TYPE>
2
5
10

$$$$

10314851
  -OEChem-12311612393D

 51 53  0     0  0  0  0  0  0999 V2000
   -3.7340   -2.9279    0.0122 O   0  0  0  0  0  0  0  0  0  0  0  0
    1.2900   -0.4060   -0.4597 N   0  0  0  0  0  0  0  0  0  0  0  0
   -2.8936   -0.7120    0.1173 N   0  0  0  0  0  0  0  0  0  0  0  0
   -1.4915   -1.0394    0.1904 C   0  0  0  0  0  0  0  0  0  0  0  0
   -0.9098   -1.2576   -1.2061 C   0  0  0  0  0  0  0  0  0  0  0  0
   -0.7092    0.0507    0.9237 C   0  0  0  0  0  0  0  0  0  0  0  0
    0.5986   -1.5053   -1.1471 C   0  0  0  0  0  0  0  0  0  0  0  0
    0.7923   -0.2413    0.9130 C   0  0  0  0  0  0  0  0  0  0  0  0
    2.7350   -0.6335   -0.4561 C   0  0  0  0  0  0  0  0  0  0  0  0
    3.4767    0.5645    0.1382 C   0  0  0  0  0  0  0  0  0  0  0  0
   -3.2672    0.7032    0.0437 C   0  0  0  0  0  0  0  0  0  0  0  0
   -3.9070   -1.7090    0.0331 C   0  0  0  0  0  0  0  0  0  0  0  0
    4.9695    0.3521    0.1273 C   0  0  0  0  0  0  0  0  0  0  0  0
   -3.5550    1.3372    1.2132 C   0  0  0  0  0  0  0  0  0  0  0  0
   -3.2986    1.2805   -1.1885 C   0  0  0  0  0  0  0  0  0  0  0  0
   -5.3000   -1.1781   -0.0373 C   0  0  0  0  0  0  0  0  0  0  0  0
    5.5799   -0.2485    1.2181 C   0  0  0  0  0  0  0  0  0  0  0  0
    5.7076    0.7603   -0.9736 C   0  0  0  0  0  0  0  0  0  0  0  0
   -3.9102    2.6844    1.1436 C   0  0  0  0  0  0  0  0  0  0  0  0
   -3.6538    2.6277   -1.2581 C   0  0  0  0  0  0  0  0  0  0  0  0
   -3.9596    3.3295   -0.0920 C   0  0  0  0  0  0  0  0  0  0  0  0
    6.9608   -0.4453    1.2081 C   0  0  0  0  0  0  0  0  0  0  0  0
    7.0885    0.5634   -0.9835 C   0  0  0  0  0  0  0  0  0  0  0  0
    7.7150   -0.0395    0.1073 C   0  0  0  0  0  0  0  0  0  0  0  0
   -6.3241   -1.9099    0.4127 C   0  0  0  0  0  0  0  0  0  0  0  0
   -1.3986   -1.9797    0.7498 H   0  0  0  0  0  0  0  0  0  0  0  0
   -1.4013   -2.1088   -1.6928 H   0  0  0  0  0  0  0  0  0  0  0  0
   -1.0920   -0.3880   -1.8478 H   0  0  0  0  0  0  0  0  0  0  0  0
   -0.8351    1.0372    0.4610 H   0  0  0  0  0  0  0  0  0  0  0  0
   -1.0470    0.1295    1.9643 H   0  0  0  0  0  0  0  0  0  0  0  0
    0.7945   -2.4636   -0.6480 H   0  0  0  0  0  0  0  0  0  0  0  0
    0.9691   -1.5929   -2.1758 H   0  0  0  0  0  0  0  0  0  0  0  0
    1.2507    0.6127    1.4180 H   0  0  0  0  0  0  0  0  0  0  0  0
    1.0002   -1.1341    1.5173 H   0  0  0  0  0  0  0  0  0  0  0  0
    2.9877   -1.5496    0.0951 H   0  0  0  0  0  0  0  0  0  0  0  0
    3.0822   -0.7811   -1.4873 H   0  0  0  0  0  0  0  0  0  0  0  0
    3.2315    1.4797   -0.4171 H   0  0  0  0  0  0  0  0  0  0  0  0
    3.2010    0.7615    1.1788 H   0  0  0  0  0  0  0  0  0  0  0  0
   -3.5216    0.8346    2.1740 H   0  0  0  0  0  0  0  0  0  0  0  0
   -3.0788    0.7359   -2.0997 H   0  0  0  0  0  0  0  0  0  0  0  0
   -5.5173   -0.2206   -0.4916 H   0  0  0  0  0  0  0  0  0  0  0  0
    5.0013   -0.5708    2.0793 H   0  0  0  0  0  0  0  0  0  0  0  0
    5.2285    1.2288   -1.8286 H   0  0  0  0  0  0  0  0  0  0  0  0
   -4.1498    3.2303    2.0514 H   0  0  0  0  0  0  0  0  0  0  0  0
   -3.6963    3.1291   -2.2207 H   0  0  0  0  0  0  0  0  0  0  0  0
   -4.2374    4.3780   -0.1464 H   0  0  0  0  0  0  0  0  0  0  0  0
    7.4486   -0.9154    2.0571 H   0  0  0  0  0  0  0  0  0  0  0  0
    7.6759    0.8788   -1.8409 H   0  0  0  0  0  0  0  0  0  0  0  0
    8.7901   -0.1931    0.0992 H   0  0  0  0  0  0  0  0  0  0  0  0
   -7.3379   -1.5303    0.3387 H   0  0  0  0  0  0  0  0  0  0  0  0
   -6.1872   -2.8859    0.8650 H   0  0  0  0  0  0  0  0  0  0  0  0
  1 12  2  0  0  0  0
  2  7  1  0  0  0  0
  2  8  1  0  0  0  0
  2  9  1  0  0  0  0
  3  4  1  0  0  0  0
  3 11  1  0  0  0  0
  3 12  1  0  0  0  0
  4  5  1  0  0  0  0
  4  6  1  0  0  0  0
  4 26  1  0  0  0  0
  5  7  1  0  0  0  0
  5 27  1  0  0  0  0
  5 28  1  0  0  0  0
  6  8  1  0  0  0  0
  6 29  1  0  0  0  0
  6 30  1  0  0  0  0
  7 31  1  0  0  0  0
  7 32  1  0  0  0  0
  8 33  1  0  0  0  0
  8 34  1  0  0  0  0
  9 10  1  0  0  0  0
  9 35  1  0  0  0  0
  9 36  1  0  0  0  0
 10 13  1  0  0  0  0
 10 37  1  0  0  0  0
 10 38  1  0  0  0  0
 11 14  2  0  0  0  0
 11 15  1  0  0  0  0
 12 16  1  0  0  0  0
 13 17  2  0  0  0  0
 13 18  1  0  0  0  0
 14 19  1  0  0  0  0
 14 39  1  0  0  0  0
 15 20  2  0  0  0  0
 15 40  1  0  0  0  0
 16 25  2  0  0  0  0
 16 41  1  0  0  0  0
 17 22  1  0  0  0  0
 17 42  1  0  0  0  0
 18 23  2  0  0  0  0
 18 43  1  0  0  0  0
 19 21  2  0  0  0  0
 19 44  1  0  0  0  0
 20 21  1  0  0  0  0
 20 45  1  0  0  0  0
 21 46  1  0  0  0  0
 22 24  2  0  0  0  0
 22 47  1  0  0  0  0
 23 24  1  0  0  0  0
 23 48  1  0  0  0  0
 24 49  1  0  0  0  0
 25 50  1  0  0  0  0
 25 51  1  0  0  0  0
M  END
> <PUBCHEM_COMPOUND_CID>
10314851

> <PUBCHEM_CONFORMER_RMSD>
0.8

> <PUBCHEM_CONFORMER_DIVERSEORDER>
1
73
78
110
13
81
21
14
101
113
7
94
28
92
15
97
65
50
36
67
111
35
41
103
8
105
52
38
30
100
5
63
23
98
4
112
54
12
2
93
57
85
58
96
108
60
104
33
77
43
95
68
91
29
71
106
69
83
59
79
114
31
39
19
32
80
90
99
82
64
49
47
51
20
25
76
17
45
62
109
56
88
42
72
74
22
6
10
86
48
70
27
9
102
66
89
26
107
18
24
40
46
87
11
44
55
61
37
75
53
84
3
16
34

> <PUBCHEM_MMFF94_PARTIAL_CHARGES>
36
1 -0.57
10 0.14
11 0.12
12 0.62
13 -0.14
14 -0.15
15 -0.15
16 -0.14
17 -0.15
18 -0.15
19 -0.15
2 -0.81
20 -0.15
21 -0.15
22 -0.15
23 -0.15
24 -0.15
25 -0.3
3 -0.48
39 0.15
4 0.3
40 0.15
41 0.15
42 0.15
43 0.15
44 0.15
45 0.15
46 0.15
47 0.15
48 0.15
49 0.15
50 0.15
51 0.15
7 0.27
8 0.27
9 0.27

> <PUBCHEM_EFFECTIVE_ROTOR_COUNT>
8.2

> <PUBCHEM_PHARMACOPHORE_FEATURES>
6
1 1 acceptor
1 2 cation
1 25 hydrophobe
6 11 14 15 19 20 21 rings
6 13 17 18 22 23 24 rings
6 2 4 5 6 7 8 rings

> <PUBCHEM_HEAVY_ATOM_COUNT>
25

> <PUBCHEM_ATOM_DEF_STEREO_COUNT>
0

> <PUBCHEM_ATOM_UDEF_STEREO_COUNT>
0

> <PUBCHEM_BOND_DEF_STEREO_COUNT>
0

> <PUBCHEM_BOND_UDEF_STEREO_COUNT>
0

> <PUBCHEM_ISOTOPIC_ATOM_COUNT>
0

> <PUBCHEM_COMPONENT_COUNT>
1

> <PUBCHEM_CACTVS_TAUTO_COUNT>
1

> <PUBCHEM_CONFORMER_ID>
009D646300000001

> <PUBCHEM_MMFF94_ENERGY>
89.2677

> <PUBCHEM_FEATURE_SELFOVERLAP>
30.446

> <PUBCHEM_SHAPE_FINGERPRINT>
10076449 9 17632003231389036701
100830 39 18410009906075766412
10290309 65 17988650648758204102
10411042 1 18050850215843564011
105312 117 17988922245588760164
10595046 47 18259702324515376794
10638233 991 17749680683612926452
11101153 10 18190184666182385653
11135926 11 13686303439739946676
11315181 36 13045944611868649839
12107183 9 17829035520995764186
12107698 1 18336264642860836856
12166972 35 18335704991975516528
12236239 1 17603580841776514306
12403259 415 17846774126817506784
13073987 5 18411418376118009866
13631057 29 18410007780214745571
13914758 101 16660634151253166367
14068700 675 18262517138765047879
14118638 360 18410853239852219970
14251764 18 18041000657178354876
14856354 85 18337114578350548055
15021287 119 17167582683422003724
15183329 4 17748825216326702458
15419008 47 17775282781189178584
1577012 14 18186523186026231264
15849732 13 13038913240016126771
15876981 60 18114185258650130461
17780758 139 13695875783412516549
17844677 252 18338519741852996776
17980427 23 17822019700243653004
19489759 90 18408603677689739114
20281389 69 18408884040871443096
21033648 144 18196370325590112069
21033648 29 17632282480797370816
21236236 1 18408885131170449237
21279426 13 17987808393519090678
21315759 40 17676203594093190722
21315764 268 18341888653785918840
22956985 138 17182785901319651315
23081809 10 17821447959373001024
23198884 109 17967252022562057690
23522609 53 17749973080797141372
23569943 247 16299769951387920218
24771293 8 12535330309130910730
249057 25 17894920658676673956
283562 15 18409166602759904843
2838139 119 18342167826813191364
350125 39 18341615949306123025
3633792 109 16660631960915284171
4197921 191 18260271884439206620
497634 4 17967244317127160031
5104073 3 18269277876249468618
58083652 198 15936408970879460508
5969126 39 18271236214776530495
6327066 14 18116989980254546285
7808743 9 18264487291592840345
9996256 80 18260546727896799598

> <PUBCHEM_SHAPE_MULTIPOLES>
498.66
19.18
2.7
1.26
33.52
1.28
-0.02
0.64
1.64
-7.03
-0.19
0.36
0.29
-0.26

> <PUBCHEM_SHAPE_SELFOVERLAP>
1053.683

> <PUBCHEM_SHAPE_VOLUME>
276.3

> <PUBCHEM_COORDINATE_TYPE>
2
5
10

$$$$

187760
  -OEChem-12311612393D

 43 44  0     0  0  0  0  0  0999 V2000
   -3.6557    2.7141   -0.5676 Cl  0  0  0  0  0  0  0  0  0  0  0  0
   -6.2149    0.7990   -0.0606 Cl  0  0  0  0  0  0  0  0  0  0  0  0
   -0.4632   -2.4231    0.8012 O   0  0  0  0  0  0  0  0  0  0  0  0
    3.9710   -0.6511   -0.2758 N   0  0  0  0  0  0  0  0  0  0  0  0
    0.2974   -0.7622   -0.6302 N   0  0  0  0  0  0  0  0  0  0  0  0
    2.6072   -0.1092   -0.1938 C   0  0  0  0  0  0  0  0  0  0  0  0
    2.2721    0.2322    1.2735 C   0  0  0  0  0  0  0  0  0  0  0  0
    2.4754    1.1519   -1.0748 C   0  0  0  0  0  0  0  0  0  0  0  0
    3.0493    1.4355    1.8111 C   0  0  0  0  0  0  0  0  0  0  0  0
    3.2545    2.3531   -0.5360 C   0  0  0  0  0  0  0  0  0  0  0  0
    2.8865    2.6575    0.9127 C   0  0  0  0  0  0  0  0  0  0  0  0
    1.6550   -1.2010   -0.7028 C   0  0  0  0  0  0  0  0  0  0  0  0
    4.3003   -0.9781   -1.6596 C   0  0  0  0  0  0  0  0  0  0  0  0
    4.0967   -1.8282    0.5783 C   0  0  0  0  0  0  0  0  0  0  0  0
   -0.6728   -1.4173    0.1282 C   0  0  0  0  0  0  0  0  0  0  0  0
   -2.0452   -0.8507    0.0779 C   0  0  0  0  0  0  0  0  0  0  0  0
   -2.2018    0.4939   -0.1880 C   0  0  0  0  0  0  0  0  0  0  0  0
   -3.1195   -1.6873    0.2998 C   0  0  0  0  0  0  0  0  0  0  0  0
   -3.4905    1.0257   -0.2341 C   0  0  0  0  0  0  0  0  0  0  0  0
   -4.4080   -1.1555    0.2538 C   0  0  0  0  0  0  0  0  0  0  0  0
   -4.5937    0.2009   -0.0133 C   0  0  0  0  0  0  0  0  0  0  0  0
    2.3367   -0.6104    1.9670 H   0  0  0  0  0  0  0  0  0  0  0  0
    1.2136    0.5239    1.3323 H   0  0  0  0  0  0  0  0  0  0  0  0
    1.4257    1.4751   -1.0847 H   0  0  0  0  0  0  0  0  0  0  0  0
    2.7037    0.9907   -2.1318 H   0  0  0  0  0  0  0  0  0  0  0  0
    4.1122    1.1820    1.9013 H   0  0  0  0  0  0  0  0  0  0  0  0
    2.6959    1.6776    2.8202 H   0  0  0  0  0  0  0  0  0  0  0  0
    3.0459    3.2326   -1.1562 H   0  0  0  0  0  0  0  0  0  0  0  0
    4.3315    2.1621   -0.6113 H   0  0  0  0  0  0  0  0  0  0  0  0
    1.8471    3.0059    0.9581 H   0  0  0  0  0  0  0  0  0  0  0  0
    3.5118    3.4757    1.2873 H   0  0  0  0  0  0  0  0  0  0  0  0
    1.7154   -2.1397   -0.1517 H   0  0  0  0  0  0  0  0  0  0  0  0
    1.7921   -1.4290   -1.7636 H   0  0  0  0  0  0  0  0  0  0  0  0
    4.3154   -0.1188   -2.3332 H   0  0  0  0  0  0  0  0  0  0  0  0
    3.7217   -1.7919   -2.1055 H   0  0  0  0  0  0  0  0  0  0  0  0
    5.3416   -1.3291   -1.6830 H   0  0  0  0  0  0  0  0  0  0  0  0
    5.1427   -2.1628    0.5256 H   0  0  0  0  0  0  0  0  0  0  0  0
    3.5166   -2.7057    0.2822 H   0  0  0  0  0  0  0  0  0  0  0  0
    3.9631   -1.6326    1.6442 H   0  0  0  0  0  0  0  0  0  0  0  0
    0.0145   -0.0276   -1.2695 H   0  0  0  0  0  0  0  0  0  0  0  0
   -1.3552    1.1595   -0.3287 H   0  0  0  0  0  0  0  0  0  0  0  0
   -2.9923   -2.7462    0.5038 H   0  0  0  0  0  0  0  0  0  0  0  0
   -5.2565   -1.8130    0.4267 H   0  0  0  0  0  0  0  0  0  0  0  0
  1 19  1  0  0  0  0
  2 21  1  0  0  0  0
  3 15  2  0  0  0  0
  4  6  1  0  0  0  0
  4 13  1  0  0  0  0
  4 14  1  0  0  0  0
  5 12  1  0  0  0  0
  5 15  1  0  0  0  0
  5 40  1  0  0  0  0
  6  7  1  0  0  0  0
  6  8  1  0  0  0  0
  6 12  1  0  0  0  0
  7  9  1  0  0  0  0
  7 22  1  0  0  0  0
  7 23  1  0  0  0  0
  8 10  1  0  0  0  0
  8 24  1  0  0  0  0
  8 25  1  0  0  0  0
  9 11  1  0  0  0  0
  9 26  1  0  0  0  0
  9 27  1  0  0  0  0
 10 11  1  0  0  0  0
 10 28  1  0  0  0  0
 10 29  1  0  0  0  0
 11 30  1  0  0  0  0
 11 31  1  0  0  0  0
 12 32  1  0  0  0  0
 12 33  1  0  0  0  0
 13 34  1  0  0  0  0
 13 35  1  0  0  0  0
 13 36  1  0  0  0  0
 14 37  1  0  0  0  0
 14 38  1  0  0  0  0
 14 39  1  0  0  0  0
 15 16  1  0  0  0  0
 16 17  2  0  0  0  0
 16 18  1  0  0  0  0
 17 19  1  0  0  0  0
 17 41  1  0  0  0  0
 18 20  2  0  0  0  0
 18 42  1  0  0  0  0
 19 21  2  0  0  0  0
 20 21  1  0  0  0  0
 20 43  1  0  0  0  0
M  END
> <PUBCHEM_COMPOUND_CID>
187760

> <PUBCHEM_CONFORMER_RMSD>
0.8

> <PUBCHEM_CONFORMER_DIVERSEORDER>
2
17
13
23
24
26
25
9
22
14
27
28
18
10
11
1
5
16
21
7
12
19
6
15
3
8
20
4

> <PUBCHEM_MMFF94_PARTIAL_CHARGES>
20
1 -0.18
12 0.3
13 0.27
14 0.27
15 0.54
16 0.09
17 -0.15
18 -0.15
19 0.18
2 -0.18
20 -0.15
21 0.18
3 -0.57
4 -0.81
40 0.37
41 0.15
42 0.15
43 0.15
5 -0.73
6 0.27

> <PUBCHEM_EFFECTIVE_ROTOR_COUNT>
6.2

> <PUBCHEM_PHARMACOPHORE_FEATURES>
5
1 3 acceptor
1 4 cation
1 5 donor
6 16 17 18 19 20 21 rings
6 6 7 8 9 10 11 rings

> <PUBCHEM_HEAVY_ATOM_COUNT>
21

> <PUBCHEM_ATOM_DEF_STEREO_COUNT>
0

> <PUBCHEM_ATOM_UDEF_STEREO_COUNT>
0

> <PUBCHEM_BOND_DEF_STEREO_COUNT>
0

> <PUBCHEM_BOND_UDEF_STEREO_COUNT>
0

> <PUBCHEM_ISOTOPIC_ATOM_COUNT>
0

> <PUBCHEM_COMPONENT_COUNT>
1

> <PUBCHEM_CACTVS_TAUTO_COUNT>
2

> <PUBCHEM_CONFORMER_ID>
0002DD7000000002

> <PUBCHEM_MMFF94_ENERGY>
59.407

> <PUBCHEM_FEATURE_SELFOVERLAP>
25.371

> <PUBCHEM_SHAPE_FINGERPRINT>
10498660 4 18336827584598960901
10646746 165 18409165498092914301
1100329 8 16826715085769559225
11405975 8 18412265038667892683
11552529 35 13118584943217631625
11595378 159 16805314483747332037
12236239 1 16878231896141807583
12403259 415 18334292050750661221
12403260 363 18410566271712174823
12596602 18 15792029882310679517
13081056 2 18412826889257073637
13134695 92 16988560165838157272
13224815 77 18411977000991352285
13533116 47 16950555542150257611
14178342 30 17899408981279789706
14251764 38 18342174462247572089
14252887 29 7925912594889050598
14466204 15 18191860133266809930
14866123 147 16612520312585764758
15196674 1 18409451427293595869
15238133 3 18262236617328962298
15961568 22 18189615127775720557
17349148 13 15482676753770513838
17868525 174 18263635169985634570
18186145 218 18343587330314577955
192875 21 16845579699115375274
21065198 57 18409729568985749347
212847 35 18334579023037421734
21503847 285 18040156227557844220
221357 26 18273218556130353509
22224240 67 11819574674349383806
23227448 37 18270675493541669111
23559900 14 18410578404773045270
350125 39 18335986393493983029
351380 180 18412260627720453807
495365 180 17917705833822944098
5104073 3 18409735092719705819
5281201 14 18273502272942517860
633830 44 18411130364158714431
7808743 9 17906171003465606544
8509985 295 18335977563421336018
9709674 26 18266462185921063779

> <PUBCHEM_SHAPE_MULTIPOLES>
420.08
11.63
2.75
1.21
9.89
1.16
-0.11
2.02
0.7
-0.79
-0.24
-1.57
0.22
1.19

> <PUBCHEM_SHAPE_SELFOVERLAP>
855.937

> <PUBCHEM_SHAPE_VOLUME>
246.7

> <PUBCHEM_COORDINATE_TYPE>
2
5
10

$$$$

621174
  -OEChem-12311612403D

 56 58  0     0  0  0  0  0  0999 V2000
   -3.4815   -2.7731   -0.1032 O   0  0  0  0  0  0  0  0  0  0  0  0
    1.5907   -0.0824   -0.4851 N   0  0  0  0  0  0  0  0  0  0  0  0
   -2.5947   -0.5753   -0.0738 N   0  0  0  0  0  0  0  0  0  0  0  0
   -1.2031   -0.9152   -0.2361 C   0  0  0  0  0  0  0  0  0  0  0  0
   -0.6425   -0.3140   -1.5247 C   0  0  0  0  0  0  0  0  0  0  0  0
   -0.3792   -0.4507    0.9652 C   0  0  0  0  0  0  0  0  0  0  0  0
    0.8577   -0.5825   -1.6563 C   0  0  0  0  0  0  0  0  0  0  0  0
    1.1121   -0.7161    0.7514 C   0  0  0  0  0  0  0  0  0  0  0  0
    3.0276   -0.3017   -0.6491 C   0  0  0  0  0  0  0  0  0  0  0  0
    3.8130    0.3314    0.5001 C   0  0  0  0  0  0  0  0  0  0  0  0
   -2.9580    0.8354    0.0414 C   0  0  0  0  0  0  0  0  0  0  0  0
   -3.6344   -1.5518   -0.0203 C   0  0  0  0  0  0  0  0  0  0  0  0
   -5.0459   -0.9837    0.1081 C   0  0  0  0  0  0  0  0  0  0  0  0
    5.2982    0.1319    0.3314 C   0  0  0  0  0  0  0  0  0  0  0  0
   -2.9911    1.3788    1.2910 C   0  0  0  0  0  0  0  0  0  0  0  0
   -3.2382    1.5114   -1.1087 C   0  0  0  0  0  0  0  0  0  0  0  0
   -6.1183   -2.0730    0.1610 C   0  0  0  0  0  0  0  0  0  0  0  0
    5.8998   -0.9943    0.8726 C   0  0  0  0  0  0  0  0  0  0  0  0
    6.0379    1.0776   -0.3625 C   0  0  0  0  0  0  0  0  0  0  0  0
   -3.3375    2.7254    1.4011 C   0  0  0  0  0  0  0  0  0  0  0  0
   -3.5844    2.8581   -0.9984 C   0  0  0  0  0  0  0  0  0  0  0  0
   -7.5087   -1.4791    0.3200 C   0  0  0  0  0  0  0  0  0  0  0  0
   -3.6340    3.4651    0.2565 C   0  0  0  0  0  0  0  0  0  0  0  0
    7.2735   -1.1792    0.7165 C   0  0  0  0  0  0  0  0  0  0  0  0
    7.4117    0.8926   -0.5187 C   0  0  0  0  0  0  0  0  0  0  0  0
    8.0293   -0.2358    0.0207 C   0  0  0  0  0  0  0  0  0  0  0  0
   -1.1198   -2.0074   -0.3048 H   0  0  0  0  0  0  0  0  0  0  0  0
   -0.7730    0.7734   -1.5556 H   0  0  0  0  0  0  0  0  0  0  0  0
   -1.1691   -0.7235   -2.3952 H   0  0  0  0  0  0  0  0  0  0  0  0
   -0.7194   -0.9586    1.8759 H   0  0  0  0  0  0  0  0  0  0  0  0
   -0.4898    0.6252    1.1404 H   0  0  0  0  0  0  0  0  0  0  0  0
    1.0277   -1.6585   -1.7940 H   0  0  0  0  0  0  0  0  0  0  0  0
    1.2157   -0.0787   -2.5626 H   0  0  0  0  0  0  0  0  0  0  0  0
    1.6019   -0.3086    1.6393 H   0  0  0  0  0  0  0  0  0  0  0  0
    1.2976   -1.7981    0.7376 H   0  0  0  0  0  0  0  0  0  0  0  0
    3.3597    0.1552   -1.5908 H   0  0  0  0  0  0  0  0  0  0  0  0
    3.2564   -1.3737   -0.7218 H   0  0  0  0  0  0  0  0  0  0  0  0
    3.5541   -0.0917    1.4758 H   0  0  0  0  0  0  0  0  0  0  0  0
    3.5918    1.4049    0.5687 H   0  0  0  0  0  0  0  0  0  0  0  0
   -5.2541   -0.3390   -0.7519 H   0  0  0  0  0  0  0  0  0  0  0  0
   -5.1128   -0.3932    1.0277 H   0  0  0  0  0  0  0  0  0  0  0  0
   -2.7736    0.8037    2.1848 H   0  0  0  0  0  0  0  0  0  0  0  0
   -3.2132    1.0400   -2.0855 H   0  0  0  0  0  0  0  0  0  0  0  0
   -5.9200   -2.7536    0.9976 H   0  0  0  0  0  0  0  0  0  0  0  0
   -6.0849   -2.6756   -0.7546 H   0  0  0  0  0  0  0  0  0  0  0  0
    5.3198   -1.7366    1.4138 H   0  0  0  0  0  0  0  0  0  0  0  0
    5.5657    1.9585   -0.7879 H   0  0  0  0  0  0  0  0  0  0  0  0
   -3.3792    3.1972    2.3785 H   0  0  0  0  0  0  0  0  0  0  0  0
   -3.8185    3.4333   -1.8895 H   0  0  0  0  0  0  0  0  0  0  0  0
   -7.5850   -0.9008    1.2463 H   0  0  0  0  0  0  0  0  0  0  0  0
   -8.2592   -2.2751    0.3539 H   0  0  0  0  0  0  0  0  0  0  0  0
   -7.7514   -0.8188   -0.5187 H   0  0  0  0  0  0  0  0  0  0  0  0
   -3.9051    4.5133    0.3423 H   0  0  0  0  0  0  0  0  0  0  0  0
    7.7544   -2.0581    1.1357 H   0  0  0  0  0  0  0  0  0  0  0  0
    8.0005    1.6268   -1.0609 H   0  0  0  0  0  0  0  0  0  0  0  0
    9.0989   -0.3799   -0.1013 H   0  0  0  0  0  0  0  0  0  0  0  0
  1 12  2  0  0  0  0
  2  7  1  0  0  0  0
  2  8  1  0  0  0  0
  2  9  1  0  0  0  0
  3  4  1  0  0  0  0
  3 11  1  0  0  0  0
  3 12  1  0  0  0  0
  4  5  1  0  0  0  0
  4  6  1  0  0  0  0
  4 27  1  0  0  0  0
  5  7  1  0  0  0  0
  5 28  1  0  0  0  0
  5 29  1  0  0  0  0
  6  8  1  0  0  0  0
  6 30  1  0  0  0  0
  6 31  1  0  0  0  0
  7 32  1  0  0  0  0
  7 33  1  0  0  0  0
  8 34  1  0  0  0  0
  8 35  1  0  0  0  0
  9 10  1  0  0  0  0
  9 36  1  0  0  0  0
  9 37  1  0  0  0  0
 10 14  1  0  0  0  0
 10 38  1  0  0  0  0
 10 39  1  0  0  0  0
 11 15  2  0  0  0  0
 11 16  1  0  0  0  0
 12 13  1  0  0  0  0
 13 17  1  0  0  0  0
 13 40  1  0  0  0  0
 13 41  1  0  0  0  0
 14 18  2  0  0  0  0
 14 19  1  0  0  0  0
 15 20  1  0  0  0  0
 15 42  1  0  0  0  0
 16 21  2  0  0  0  0
 16 43  1  0  0  0  0
 17 22  1  0  0  0  0
 17 44  1  0  0  0  0
 17 45  1  0  0  0  0
 18 24  1  0  0  0  0
 18 46  1  0  0  0  0
 19 25  2  0  0  0  0
 19 47  1  0  0  0  0
 20 23  2  0  0  0  0
 20 48  1  0  0  0  0
 21 23  1  0  0  0  0
 21 49  1  0  0  0  0
 22 50  1  0  0  0  0
 22 51  1  0  0  0  0
 22 52  1  0  0  0  0
 23 53  1  0  0  0  0
 24 26  2  0  0  0  0
 24 54  1  0  0  0  0
 25 26  1  0  0  0  0
 25 55  1  0  0  0  0
 26 56  1  0  0  0  0
M  END
> <PUBCHEM_COMPOUND_CID>
621174

> <PUBCHEM_CONFORMER_RMSD>
1

> <PUBCHEM_CONFORMER_DIVERSEORDER>
1
24
30
64
57
8
28
69
63
37
48
19
55
21
54
9
13
34
15
67
14
10
41
7
27
43
39
51
5
40
36
18
56
66
3
6
35
58
70
4
60
25
52
38
42
16
47
68
29
50
45
61
26
62
65
22
12
59
20
49
11
23
53
31
32
33
46
17
2
44

> <PUBCHEM_MMFF94_PARTIAL_CHARGES>
32
1 -0.57
10 0.14
11 0.12
12 0.57
13 0.06
14 -0.14
15 -0.15
16 -0.15
18 -0.15
19 -0.15
2 -0.81
20 -0.15
21 -0.15
23 -0.15
24 -0.15
25 -0.15
26 -0.15
3 -0.48
4 0.3
42 0.15
43 0.15
46 0.15
47 0.15
48 0.15
49 0.15
53 0.15
54 0.15
55 0.15
56 0.15
7 0.27
8 0.27
9 0.27

> <PUBCHEM_EFFECTIVE_ROTOR_COUNT>
9.2

> <PUBCHEM_PHARMACOPHORE_FEATURES>
6
1 1 acceptor
1 2 cation
1 22 hydrophobe
6 11 15 16 20 21 23 rings
6 14 18 19 24 25 26 rings
6 2 4 5 6 7 8 rings

> <PUBCHEM_HEAVY_ATOM_COUNT>
26

> <PUBCHEM_ATOM_DEF_STEREO_COUNT>
0

> <PUBCHEM_ATOM_UDEF_STEREO_COUNT>
0

> <PUBCHEM_BOND_DEF_STEREO_COUNT>
0

> <PUBCHEM_BOND_UDEF_STEREO_COUNT>
0

> <PUBCHEM_ISOTOPIC_ATOM_COUNT>
0

> <PUBCHEM_COMPONENT_COUNT>
1

> <PUBCHEM_CACTVS_TAUTO_COUNT>
1

> <PUBCHEM_CONFORMER_ID>
00097A7600000001

> <PUBCHEM_MMFF94_ENERGY>
82.0477

> <PUBCHEM_FEATURE_SELFOVERLAP>
30.446

> <PUBCHEM_SHAPE_FINGERPRINT>
10050765 1 18266177223600233507
100830 39 18410572843207673736
105312 117 17418089889182045684
10595046 47 18334574651203897690
10638233 991 17968387840118495644
11101153 10 18263365948319290380
11135926 11 13758077355467103852
11315181 36 18113337522204857781
11524674 6 16773517771297859719
12107183 9 17903349308794015538
12107698 1 18340768233951065896
12166972 35 18261393390442109100
12236239 1 17967811652120864418
12596602 18 18333447638821313304
12664476 115 17917990616341438416
13073987 5 18410009906239212322
13631057 29 18410006663486149915
13914758 101 16877654656821474397
14068700 675 18262519320618788887
14118638 360 18408602535460884746
14150022 121 17703802405676813849
14251764 18 18187368740231834934
14856354 85 18341055219376443102
15183329 4 18259981549298229690
15419008 47 17704069607723040360
15876981 60 18334860527979164612
17844677 252 18410858789487666360
19303781 99 17413012546950826879
19489759 90 18410573989747235354
20281389 69 18413106161327375560
21033648 29 17346303891695742176
21130935 74 18335130961681666522
21236236 1 18335419058394841620
21315763 28 18335137592783486650
21792961 116 17703793583439291034
22956985 138 17329429961701876299
23081809 10 17821730521055597862
23522609 53 17822876186471041964
23559900 14 18117272768794104883
249057 25 18041572407177284276
2838139 119 18059284358606678064
3633792 109 16877936157409889119
3663271 9 18334010584854144786
4197921 191 18334298699639597084
497634 4 18113892766976576158
5104073 3 18128824049077724410
5969126 39 18272642477231756133
6327066 14 18118114771922721869
9996256 80 18335137592514513226

> <PUBCHEM_SHAPE_MULTIPOLES>
519.24
20.93
2.77
1.21
32.03
1.94
-0.14
-4.65
2.57
-6.47
0.25
-0.23
0.31
-0.65

> <PUBCHEM_SHAPE_SELFOVERLAP>
1085.839

> <PUBCHEM_SHAPE_VOLUME>
291.1

> <PUBCHEM_COORDINATE_TYPE>
2
5
10

$$$$

61583
  -OEChem-12311612423D

 39 40  0     0  0  0  0  0  0999 V2000
   -0.8811    1.2969   -0.8112 O   0  0  0  0  0  0  0  0  0  0  0  0
   -1.9364    0.7355    1.1623 O   0  0  0  0  0  0  0  0  0  0  0  0
    3.1909    1.0811    0.0722 N   0  0  0  0  0  0  0  0  0  0  0  0
    0.2945    0.5841   -0.3912 C   0  0  0  0  0  0  0  0  0  0  0  0
    0.8475    1.3360    0.8416 C   0  0  0  0  0  0  0  0  0  0  0  0
    1.3410    0.7375   -1.5188 C   0  0  0  0  0  0  0  0  0  0  0  0
    2.2786    0.9278    1.2122 C   0  0  0  0  0  0  0  0  0  0  0  0
    2.7389    0.2950   -1.0821 C   0  0  0  0  0  0  0  0  0  0  0  0
   -0.1336   -0.8697   -0.1772 C   0  0  0  0  0  0  0  0  0  0  0  0
    4.5528    0.7048    0.4494 C   0  0  0  0  0  0  0  0  0  0  0  0
   -0.0146   -1.4516    1.0841 C   0  0  0  0  0  0  0  0  0  0  0  0
   -0.6422   -1.6097   -1.2437 C   0  0  0  0  0  0  0  0  0  0  0  0
   -1.9269    1.2889    0.0714 C   0  0  0  0  0  0  0  0  0  0  0  0
   -0.4048   -2.7765    1.2794 C   0  0  0  0  0  0  0  0  0  0  0  0
   -1.0325   -2.9346   -1.0483 C   0  0  0  0  0  0  0  0  0  0  0  0
   -3.0746    2.0762   -0.5160 C   0  0  0  0  0  0  0  0  0  0  0  0
   -0.9138   -3.5179    0.2133 C   0  0  0  0  0  0  0  0  0  0  0  0
   -4.2836    2.0962    0.4028 C   0  0  0  0  0  0  0  0  0  0  0  0
    0.2263    1.2469    1.7375 H   0  0  0  0  0  0  0  0  0  0  0  0
    0.8469    2.4145    0.6210 H   0  0  0  0  0  0  0  0  0  0  0  0
    1.3799    1.7909   -1.8330 H   0  0  0  0  0  0  0  0  0  0  0  0
    1.0489    0.1912   -2.4229 H   0  0  0  0  0  0  0  0  0  0  0  0
    2.6103    1.5808    2.0293 H   0  0  0  0  0  0  0  0  0  0  0  0
    2.3182   -0.0969    1.5954 H   0  0  0  0  0  0  0  0  0  0  0  0
    2.7452   -0.7795   -0.8588 H   0  0  0  0  0  0  0  0  0  0  0  0
    3.4227    0.4547   -1.9247 H   0  0  0  0  0  0  0  0  0  0  0  0
    4.6242   -0.3471    0.7489 H   0  0  0  0  0  0  0  0  0  0  0  0
    4.9076    1.3250    1.2800 H   0  0  0  0  0  0  0  0  0  0  0  0
    5.2433    0.8734   -0.3844 H   0  0  0  0  0  0  0  0  0  0  0  0
    0.3467   -0.9193    1.9550 H   0  0  0  0  0  0  0  0  0  0  0  0
   -0.7583   -1.1716   -2.2307 H   0  0  0  0  0  0  0  0  0  0  0  0
   -0.3189   -3.2294    2.2628 H   0  0  0  0  0  0  0  0  0  0  0  0
   -1.4327   -3.5109   -1.8772 H   0  0  0  0  0  0  0  0  0  0  0  0
   -2.7356    3.1023   -0.6930 H   0  0  0  0  0  0  0  0  0  0  0  0
   -3.3537    1.6200   -1.4717 H   0  0  0  0  0  0  0  0  0  0  0  0
   -1.2199   -4.5486    0.3659 H   0  0  0  0  0  0  0  0  0  0  0  0
   -4.0369    2.5524    1.3672 H   0  0  0  0  0  0  0  0  0  0  0  0
   -5.0972    2.6712   -0.0499 H   0  0  0  0  0  0  0  0  0  0  0  0
   -4.6472    1.0814    0.5960 H   0  0  0  0  0  0  0  0  0  0  0  0
  1  4  1  0  0  0  0
  1 13  1  0  0  0  0
  2 13  2  0  0  0  0
  3  7  1  0  0  0  0
  3  8  1  0  0  0  0
  3 10  1  0  0  0  0
  4  5  1  0  0  0  0
  4  6  1  0  0  0  0
  4  9  1  0  0  0  0
  5  7  1  0  0  0  0
  5 19  1  0  0  0  0
  5 20  1  0  0  0  0
  6  8  1  0  0  0  0
  6 21  1  0  0  0  0
  6 22  1  0  0  0  0
  7 23  1  0  0  0  0
  7 24  1  0  0  0  0
  8 25  1  0  0  0  0
  8 26  1  0  0  0  0
  9 11  2  0  0  0  0
  9 12  1  0  0  0  0
 10 27  1  0  0  0  0
 10 28  1  0  0  0  0
 10 29  1  0  0  0  0
 11 14  1  0  0  0  0
 11 30  1  0  0  0  0
 12 15  2  0  0  0  0
 12 31  1  0  0  0  0
 13 16  1  0  0  0  0
 14 17  2  0  0  0  0
 14 32  1  0  0  0  0
 15 17  1  0  0  0  0
 15 33  1  0  0  0  0
 16 18  1  0  0  0  0
 16 34  1  0  0  0  0
 16 35  1  0  0  0  0
 17 36  1  0  0  0  0
 18 37  1  0  0  0  0
 18 38  1  0  0  0  0
 18 39  1  0  0  0  0
M  END
> <PUBCHEM_COMPOUND_CID>
61583

> <PUBCHEM_CONFORMER_RMSD>
0.8

> <PUBCHEM_CONFORMER_DIVERSEORDER>
1
12
11
9
3
4
13
14
5
8
6
10
2
7

> <PUBCHEM_MMFF94_PARTIAL_CHARGES>
20
1 -0.43
10 0.27
11 -0.15
12 -0.15
13 0.66
14 -0.15
15 -0.15
16 0.06
17 -0.15
2 -0.57
3 -0.81
30 0.15
31 0.15
32 0.15
33 0.15
36 0.15
4 0.42
7 0.27
8 0.27
9 -0.14

> <PUBCHEM_EFFECTIVE_ROTOR_COUNT>
5.2

> <PUBCHEM_PHARMACOPHORE_FEATURES>
5
1 18 hydrophobe
1 2 acceptor
1 3 cation
6 3 4 5 6 7 8 rings
6 9 11 12 14 15 17 rings

> <PUBCHEM_HEAVY_ATOM_COUNT>
18

> <PUBCHEM_ATOM_DEF_STEREO_COUNT>
0

> <PUBCHEM_ATOM_UDEF_STEREO_COUNT>
0

> <PUBCHEM_BOND_DEF_STEREO_COUNT>
0

> <PUBCHEM_BOND_UDEF_STEREO_COUNT>
0

> <PUBCHEM_ISOTOPIC_ATOM_COUNT>
0

> <PUBCHEM_COMPONENT_COUNT>
1

> <PUBCHEM_CACTVS_TAUTO_COUNT>
1

> <PUBCHEM_CONFORMER_ID>
0000F08F00000001

> <PUBCHEM_MMFF94_ENERGY>
43.9516

> <PUBCHEM_FEATURE_SELFOVERLAP>
25.371

> <PUBCHEM_SHAPE_FINGERPRINT>
1 1 18192712237260765879
10756046 70 17458919222497400356
10922049 32 18411421665719761913
116883 192 18053945335878017903
12138202 97 18273217529728024420
12500047 106 18411698803338724708
12532896 13 18412259536508506412
12592029 89 18118403947242134784
12716301 132 18340201985409728281
12788726 201 18046920551608560119
13083527 12 17758374306930475573
13538477 17 17824270520889183564
13681431 1 17330546554034182797
14468879 13 16339438329025435608
14817 1 14899093365020791367
15309172 13 18335419028298876797
15502708 68 18192149300355984449
15852999 172 18272942600297134828
15906896 17 18262525917140221243
16945 1 18265346172939155423
20361792 2 17476367570055651670
20524608 308 18342174518134238182
20567600 347 18337394838341409667
20600515 1 17034684935778073040
20645476 183 18187376436449421028
20645477 70 17975974264165352149
20711985 344 18121770888106703994
21054139 6 18341598327461490005
21501502 16 18122626321460385444
21524375 3 18410855425958606893
22112679 90 17615996711866157297
22956985 138 17753048289722959115
23419403 2 17621930497001683347
23558518 356 18124298661028565641
2748010 2 18120684398967520951
276578 36 18336544906656848080
298252 57 16988554671900135997
3060560 45 18335420106367303941
3250762 1 17912638300468321120
427121 178 18341618070761485065
4340502 62 18339933602342979737
5845 1 17054178138724806339
6138700 20 17834965170441650734
633830 44 18059577914888568477
68419 9 17679597893413853660
7364860 26 17907297650569553989
81228 2 18049147058581385305
81539 233 18190741929983767421
9981440 41 16195319872400703536

> <PUBCHEM_SHAPE_MULTIPOLES>
353.71
5.31
3.57
1.38
1.77
3.76
0.08
-5.52
-0.61
-3.01
-0.23
0.26
0.29
-0.07

> <PUBCHEM_SHAPE_SELFOVERLAP>
735.827

> <PUBCHEM_SHAPE_VOLUME>
199.7

> <PUBCHEM_COORDINATE_TYPE>
2
5
10

$$$$
13653606
  -OEChem-12311612443D

 54 57  0     0  0  0  0  0  0999 V2000
   -2.9820   -2.8179    0.3589 O   0  0  0  0  0  0  0  0  0  0  0  0
   -5.0886   -1.0495   -1.0869 O   0  0  0  0  0  0  0  0  0  0  0  0
    2.0029   -0.3937   -0.4307 N   0  0  0  0  0  0  0  0  0  0  0  0
   -2.1765   -0.6115    0.2135 N   0  0  0  0  0  0  0  0  0  0  0  0
   -0.7788   -0.9589    0.2789 C   0  0  0  0  0  0  0  0  0  0  0  0
   -0.2205   -1.2347   -1.1170 C   0  0  0  0  0  0  0  0  0  0  0  0
    0.0309    0.1429    0.9631 C   0  0  0  0  0  0  0  0  0  0  0  0
    1.2844   -1.5048   -1.0700 C   0  0  0  0  0  0  0  0  0  0  0  0
    1.5273   -0.1737    0.9421 C   0  0  0  0  0  0  0  0  0  0  0  0
    3.4440   -0.6445   -0.4389 C   0  0  0  0  0  0  0  0  0  0  0  0
    4.2129    0.5610    0.1032 C   0  0  0  0  0  0  0  0  0  0  0  0
   -2.5556    0.7957    0.0960 C   0  0  0  0  0  0  0  0  0  0  0  0
   -3.2044   -1.6096    0.2608 C   0  0  0  0  0  0  0  0  0  0  0  0
    5.7019    0.3241    0.0794 C   0  0  0  0  0  0  0  0  0  0  0  0
   -2.7526    1.4945    1.2491 C   0  0  0  0  0  0  0  0  0  0  0  0
   -2.6867    1.3102   -1.1590 C   0  0  0  0  0  0  0  0  0  0  0  0
   -4.5863   -1.1296    0.1515 C   0  0  0  0  0  0  0  0  0  0  0  0
    6.3182   -0.2476    1.1821 C   0  0  0  0  0  0  0  0  0  0  0  0
    6.4302    0.6820   -1.0449 C   0  0  0  0  0  0  0  0  0  0  0  0
   -3.1155    2.8366    1.1364 C   0  0  0  0  0  0  0  0  0  0  0  0
   -3.0495    2.6523   -1.2716 C   0  0  0  0  0  0  0  0  0  0  0  0
   -5.4514   -0.7483    1.1105 C   0  0  0  0  0  0  0  0  0  0  0  0
   -3.2639    3.4155   -0.1239 C   0  0  0  0  0  0  0  0  0  0  0  0
    7.6956   -0.4664    1.1601 C   0  0  0  0  0  0  0  0  0  0  0  0
    7.8077    0.4631   -1.0671 C   0  0  0  0  0  0  0  0  0  0  0  0
   -6.6279   -0.3875    0.4112 C   0  0  0  0  0  0  0  0  0  0  0  0
    8.4404   -0.1112    0.0354 C   0  0  0  0  0  0  0  0  0  0  0  0
   -6.3563   -0.5886   -0.9221 C   0  0  0  0  0  0  0  0  0  0  0  0
   -0.6862   -1.8788    0.8712 H   0  0  0  0  0  0  0  0  0  0  0  0
   -0.4036   -0.3831   -1.7837 H   0  0  0  0  0  0  0  0  0  0  0  0
   -0.7329   -2.0941   -1.5664 H   0  0  0  0  0  0  0  0  0  0  0  0
   -0.2890    0.2623    2.0053 H   0  0  0  0  0  0  0  0  0  0  0  0
   -0.0897    1.1136    0.4662 H   0  0  0  0  0  0  0  0  0  0  0  0
    1.6388   -1.6336   -2.1001 H   0  0  0  0  0  0  0  0  0  0  0  0
    1.4723   -2.4483   -0.5408 H   0  0  0  0  0  0  0  0  0  0  0  0
    1.7298   -1.0483    1.5742 H   0  0  0  0  0  0  0  0  0  0  0  0
    2.0062    0.6898    1.4106 H   0  0  0  0  0  0  0  0  0  0  0  0
    3.7742   -0.8333   -1.4690 H   0  0  0  0  0  0  0  0  0  0  0  0
    3.6900   -1.5451    0.1403 H   0  0  0  0  0  0  0  0  0  0  0  0
    3.9742    1.4604   -0.4802 H   0  0  0  0  0  0  0  0  0  0  0  0
    3.9552    0.7983    1.1402 H   0  0  0  0  0  0  0  0  0  0  0  0
   -2.6464    1.0442    2.2303 H   0  0  0  0  0  0  0  0  0  0  0  0
   -2.5304    0.7172   -2.0535 H   0  0  0  0  0  0  0  0  0  0  0  0
    5.7471   -0.5305    2.0618 H   0  0  0  0  0  0  0  0  0  0  0  0
    5.9463    1.1281   -1.9091 H   0  0  0  0  0  0  0  0  0  0  0  0
   -3.2849    3.4301    2.0300 H   0  0  0  0  0  0  0  0  0  0  0  0
   -3.1677    3.1023   -2.2529 H   0  0  0  0  0  0  0  0  0  0  0  0
   -5.2868   -0.7226    2.1780 H   0  0  0  0  0  0  0  0  0  0  0  0
   -3.5477    4.4601   -0.2116 H   0  0  0  0  0  0  0  0  0  0  0  0
    8.1882   -0.9143    2.0182 H   0  0  0  0  0  0  0  0  0  0  0  0
    8.3875    0.7392   -1.9429 H   0  0  0  0  0  0  0  0  0  0  0  0
   -7.5571   -0.0258    0.8269 H   0  0  0  0  0  0  0  0  0  0  0  0
    9.5128   -0.2820    0.0181 H   0  0  0  0  0  0  0  0  0  0  0  0
   -6.9275   -0.4574   -1.8295 H   0  0  0  0  0  0  0  0  0  0  0  0
  1 13  2  0  0  0  0
  2 17  1  0  0  0  0
  2 28  1  0  0  0  0
  3  8  1  0  0  0  0
  3  9  1  0  0  0  0
  3 10  1  0  0  0  0
  4  5  1  0  0  0  0
  4 12  1  0  0  0  0
  4 13  1  0  0  0  0
  5  6  1  0  0  0  0
  5  7  1  0  0  0  0
  5 29  1  0  0  0  0
  6  8  1  0  0  0  0
  6 30  1  0  0  0  0
  6 31  1  0  0  0  0
  7  9  1  0  0  0  0
  7 32  1  0  0  0  0
  7 33  1  0  0  0  0
  8 34  1  0  0  0  0
  8 35  1  0  0  0  0
  9 36  1  0  0  0  0
  9 37  1  0  0  0  0
 10 11  1  0  0  0  0
 10 38  1  0  0  0  0
 10 39  1  0  0  0  0
 11 14  1  0  0  0  0
 11 40  1  0  0  0  0
 11 41  1  0  0  0  0
 12 15  2  0  0  0  0
 12 16  1  0  0  0  0
 13 17  1  0  0  0  0
 14 18  2  0  0  0  0
 14 19  1  0  0  0  0
 15 20  1  0  0  0  0
 15 42  1  0  0  0  0
 16 21  2  0  0  0  0
 16 43  1  0  0  0  0
 17 22  2  0  0  0  0
 18 24  1  0  0  0  0
 18 44  1  0  0  0  0
 19 25  2  0  0  0  0
 19 45  1  0  0  0  0
 20 23  2  0  0  0  0
 20 46  1  0  0  0  0
 21 23  1  0  0  0  0
 21 47  1  0  0  0  0
 22 26  1  0  0  0  0
 22 48  1  0  0  0  0
 23 49  1  0  0  0  0
 24 27  2  0  0  0  0
 24 50  1  0  0  0  0
 25 27  1  0  0  0  0
 25 51  1  0  0  0  0
 26 28  2  0  0  0  0
 26 52  1  0  0  0  0
 27 53  1  0  0  0  0
 28 54  1  0  0  0  0
M  END
> <PUBCHEM_COMPOUND_CID>
13653606

> <PUBCHEM_CONFORMER_RMSD>
1

> <PUBCHEM_CONFORMER_DIVERSEORDER>
1
48
37
8
11
58
34
47
22
56
39
55
14
16
23
29
36
59
32
7
49
15
3
30
63
25
38
35
45
9
20
18
27
64
42
46
10
24
51
44
50
12
5
53
31
17
41
54
28
61
62
6
40
43
26
13
33
2
57
19
60
21
52
4

> <PUBCHEM_MMFF94_PARTIAL_CHARGES>
39
1 -0.57
10 0.27
11 0.14
12 0.12
13 0.71
14 -0.14
15 -0.15
16 -0.15
17 0.05
18 -0.15
19 -0.15
2 -0.28
20 -0.15
21 -0.15
22 -0.15
23 -0.15
24 -0.15
25 -0.15
26 -0.15
27 -0.15
28 -0.01
3 -0.81
4 -0.48
42 0.15
43 0.15
44 0.15
45 0.15
46 0.15
47 0.15
48 0.15
49 0.15
5 0.3
50 0.15
51 0.15
52 0.15
53 0.15
54 0.15
8 0.27
9 0.27

> <PUBCHEM_EFFECTIVE_ROTOR_COUNT>
8.2

> <PUBCHEM_PHARMACOPHORE_FEATURES>
7
1 1 acceptor
1 2 acceptor
1 3 cation
5 2 17 22 26 28 rings
6 12 15 16 20 21 23 rings
6 14 18 19 24 25 27 rings
6 3 5 6 7 8 9 rings

> <PUBCHEM_HEAVY_ATOM_COUNT>
28

> <PUBCHEM_ATOM_DEF_STEREO_COUNT>
0

> <PUBCHEM_ATOM_UDEF_STEREO_COUNT>
0

> <PUBCHEM_BOND_DEF_STEREO_COUNT>
0

> <PUBCHEM_BOND_UDEF_STEREO_COUNT>
0

> <PUBCHEM_ISOTOPIC_ATOM_COUNT>
0

> <PUBCHEM_COMPONENT_COUNT>
1

> <PUBCHEM_CACTVS_TAUTO_COUNT>
1

> <PUBCHEM_CONFORMER_ID>
00D0566600000001

> <PUBCHEM_MMFF94_ENERGY>
91.9037

> <PUBCHEM_FEATURE_SELFOVERLAP>
35.523

> <PUBCHEM_SHAPE_FINGERPRINT>
10076449 9 17989197158631058357
100830 39 18408040689545939628
10369192 42 16845576408922604197
11101153 10 18188215406687366980
11135926 11 13901908865459081252
11315181 36 16153712024274453661
12107698 1 18408884066171839400
12166972 35 18114464547947767172
12236239 1 17167578310602100410
12664476 115 18060416933229906344
12788726 201 18336820919263002457
13073987 5 18339643330946121330
13914758 101 16515677827733301700
14068700 675 18337106882132598645
14118638 360 18410573942740225258
14251764 18 18186803578570774708
14856354 85 18337394936598708566
15183329 4 18113337505985019336
15419008 47 17846775217950742816
15849732 13 13398633857609874531
19489759 90 18408041818974431162
20281389 69 18410854370219565408
21236236 1 18410292488805704405
21792961 116 18131073702182825274
23081809 10 17676207962486147032
23522609 53 17532112544208513804
23559900 14 18337668749274031417
249057 25 17895204311418237380
283562 15 18410292463990507531
350125 39 18413109480624964769
3633792 109 17023170592657206851
4197921 191 18260552230076979620
4325135 7 18273216400114442357
44317340 157 12967118442057931586
445580 37 18334018285245261788
5080951 261 16772930606466139910
5104073 3 18266462010080820578
59755656 215 18273217499605419358
7226269 152 18259984899067161747

> <PUBCHEM_SHAPE_MULTIPOLES>
554.53
21.65
2.44
1.3
41.11
1.81
-0.03
-0.94
0.28
-4.85
-0.11
0.1
0.21
-0.31

> <PUBCHEM_SHAPE_SELFOVERLAP>
1198.418

> <PUBCHEM_SHAPE_VOLUME>
302.8

> <PUBCHEM_COORDINATE_TYPE>
2
5
10

$$$$

13653606
  -OEChem-12311612443D

 54 57  0     0  0  0  0  0  0999 V2000
   -2.9820   -2.8179    0.3589 O   0  0  0  0  0  0  0  0  0  0  0  0
   -5.0886   -1.0495   -1.0869 O   0  0  0  0  0  0  0  0  0  0  0  0
    2.0029   -0.3937   -0.4307 N   0  0  0  0  0  0  0  0  0  0  0  0
   -2.1765   -0.6115    0.2135 N   0  0  0  0  0  0  0  0  0  0  0  0
   -0.7788   -0.9589    0.2789 C   0  0  0  0  0  0  0  0  0  0  0  0
   -0.2205   -1.2347   -1.1170 C   0  0  0  0  0  0  0  0  0  0  0  0
    0.0309    0.1429    0.9631 C   0  0  0  0  0  0  0  0  0  0  0  0
    1.2844   -1.5048   -1.0700 C   0  0  0  0  0  0  0  0  0  0  0  0
    1.5273   -0.1737    0.9421 C   0  0  0  0  0  0  0  0  0  0  0  0
    3.4440   -0.6445   -0.4389 C   0  0  0  0  0  0  0  0  0  0  0  0
    4.2129    0.5610    0.1032 C   0  0  0  0  0  0  0  0  0  0  0  0
   -2.5556    0.7957    0.0960 C   0  0  0  0  0  0  0  0  0  0  0  0
   -3.2044   -1.6096    0.2608 C   0  0  0  0  0  0  0  0  0  0  0  0
    5.7019    0.3241    0.0794 C   0  0  0  0  0  0  0  0  0  0  0  0
   -2.7526    1.4945    1.2491 C   0  0  0  0  0  0  0  0  0  0  0  0
   -2.6867    1.3102   -1.1590 C   0  0  0  0  0  0  0  0  0  0  0  0
   -4.5863   -1.1296    0.1515 C   0  0  0  0  0  0  0  0  0  0  0  0
    6.3182   -0.2476    1.1821 C   0  0  0  0  0  0  0  0  0  0  0  0
    6.4302    0.6820   -1.0449 C   0  0  0  0  0  0  0  0  0  0  0  0
   -3.1155    2.8366    1.1364 C   0  0  0  0  0  0  0  0  0  0  0  0
   -3.0495    2.6523   -1.2716 C   0  0  0  0  0  0  0  0  0  0  0  0
   -5.4514   -0.7483    1.1105 C   0  0  0  0  0  0  0  0  0  0  0  0
   -3.2639    3.4155   -0.1239 C   0  0  0  0  0  0  0  0  0  0  0  0
    7.6956   -0.4664    1.1601 C   0  0  0  0  0  0  0  0  0  0  0  0
    7.8077    0.4631   -1.0671 C   0  0  0  0  0  0  0  0  0  0  0  0
   -6.6279   -0.3875    0.4112 C   0  0  0  0  0  0  0  0  0  0  0  0
    8.4404   -0.1112    0.0354 C   0  0  0  0  0  0  0  0  0  0  0  0
   -6.3563   -0.5886   -0.9221 C   0  0  0  0  0  0  0  0  0  0  0  0
   -0.6862   -1.8788    0.8712 H   0  0  0  0  0  0  0  0  0  0  0  0
   -0.4036   -0.3831   -1.7837 H   0  0  0  0  0  0  0  0  0  0  0  0
   -0.7329   -2.0941   -1.5664 H   0  0  0  0  0  0  0  0  0  0  0  0
   -0.2890    0.2623    2.0053 H   0  0  0  0  0  0  0  0  0  0  0  0
   -0.0897    1.1136    0.4662 H   0  0  0  0  0  0  0  0  0  0  0  0
    1.6388   -1.6336   -2.1001 H   0  0  0  0  0  0  0  0  0  0  0  0
    1.4723   -2.4483   -0.5408 H   0  0  0  0  0  0  0  0  0  0  0  0
    1.7298   -1.0483    1.5742 H   0  0  0  0  0  0  0  0  0  0  0  0
    2.0062    0.6898    1.4106 H   0  0  0  0  0  0  0  0  0  0  0  0
    3.7742   -0.8333   -1.4690 H   0  0  0  0  0  0  0  0  0  0  0  0
    3.6900   -1.5451    0.1403 H   0  0  0  0  0  0  0  0  0  0  0  0
    3.9742    1.4604   -0.4802 H   0  0  0  0  0  0  0  0  0  0  0  0
    3.9552    0.7983    1.1402 H   0  0  0  0  0  0  0  0  0  0  0  0
   -2.6464    1.0442    2.2303 H   0  0  0  0  0  0  0  0  0  0  0  0
   -2.5304    0.7172   -2.0535 H   0  0  0  0  0  0  0  0  0  0  0  0
    5.7471   -0.5305    2.0618 H   0  0  0  0  0  0  0  0  0  0  0  0
    5.9463    1.1281   -1.9091 H   0  0  0  0  0  0  0  0  0  0  0  0
   -3.2849    3.4301    2.0300 H   0  0  0  0  0  0  0  0  0  0  0  0
   -3.1677    3.1023   -2.2529 H   0  0  0  0  0  0  0  0  0  0  0  0
   -5.2868   -0.7226    2.1780 H   0  0  0  0  0  0  0  0  0  0  0  0
   -3.5477    4.4601   -0.2116 H   0  0  0  0  0  0  0  0  0  0  0  0
    8.1882   -0.9143    2.0182 H   0  0  0  0  0  0  0  0  0  0  0  0
    8.3875    0.7392   -1.9429 H   0  0  0  0  0  0  0  0  0  0  0  0
   -7.5571   -0.0258    0.8269 H   0  0  0  0  0  0  0  0  0  0  0  0
    9.5128   -0.2820    0.0181 H   0  0  0  0  0  0  0  0  0  0  0  0
   -6.9275   -0.4574   -1.8295 H   0  0  0  0  0  0  0  0  0  0  0  0
  1 13  2  0  0  0  0
  2 17  1  0  0  0  0
  2 28  1  0  0  0  0
  3  8  1  0  0  0  0
  3  9  1  0  0  0  0
  3 10  1  0  0  0  0
  4  5  1  0  0  0  0
  4 12  1  0  0  0  0
  4 13  1  0  0  0  0
  5  6  1  0  0  0  0
  5  7  1  0  0  0  0
  5 29  1  0  0  0  0
  6  8  1  0  0  0  0
  6 30  1  0  0  0  0
  6 31  1  0  0  0  0
  7  9  1  0  0  0  0
  7 32  1  0  0  0  0
  7 33  1  0  0  0  0
  8 34  1  0  0  0  0
  8 35  1  0  0  0  0
  9 36  1  0  0  0  0
  9 37  1  0  0  0  0
 10 11  1  0  0  0  0
 10 38  1  0  0  0  0
 10 39  1  0  0  0  0
 11 14  1  0  0  0  0
 11 40  1  0  0  0  0
 11 41  1  0  0  0  0
 12 15  2  0  0  0  0
 12 16  1  0  0  0  0
 13 17  1  0  0  0  0
 14 18  2  0  0  0  0
 14 19  1  0  0  0  0
 15 20  1  0  0  0  0
 15 42  1  0  0  0  0
 16 21  2  0  0  0  0
 16 43  1  0  0  0  0
 17 22  2  0  0  0  0
 18 24  1  0  0  0  0
 18 44  1  0  0  0  0
 19 25  2  0  0  0  0
 19 45  1  0  0  0  0
 20 23  2  0  0  0  0
 20 46  1  0  0  0  0
 21 23  1  0  0  0  0
 21 47  1  0  0  0  0
 22 26  1  0  0  0  0
 22 48  1  0  0  0  0
 23 49  1  0  0  0  0
 24 27  2  0  0  0  0
 24 50  1  0  0  0  0
 25 27  1  0  0  0  0
 25 51  1  0  0  0  0
 26 28  2  0  0  0  0
 26 52  1  0  0  0  0
 27 53  1  0  0  0  0
 28 54  1  0  0  0  0
M  END
> <PUBCHEM_COMPOUND_CID>
13653606

> <PUBCHEM_CONFORMER_RMSD>
1

> <PUBCHEM_CONFORMER_DIVERSEORDER>
1
48
37
8
11
58
34
47
22
56
39
55
14
16
23
29
36
59
32
7
49
15
3
30
63
25
38
35
45
9
20
18
27
64
42
46
10
24
51
44
50
12
5
53
31
17
41
54
28
61
62
6
40
43
26
13
33
2
57
19
60
21
52
4

> <PUBCHEM_MMFF94_PARTIAL_CHARGES>
39
1 -0.57
10 0.27
11 0.14
12 0.12
13 0.71
14 -0.14
15 -0.15
16 -0.15
17 0.05
18 -0.15
19 -0.15
2 -0.28
20 -0.15
21 -0.15
22 -0.15
23 -0.15
24 -0.15
25 -0.15
26 -0.15
27 -0.15
28 -0.01
3 -0.81
4 -0.48
42 0.15
43 0.15
44 0.15
45 0.15
46 0.15
47 0.15
48 0.15
49 0.15
5 0.3
50 0.15
51 0.15
52 0.15
53 0.15
54 0.15
8 0.27
9 0.27

> <PUBCHEM_EFFECTIVE_ROTOR_COUNT>
8.2

> <PUBCHEM_PHARMACOPHORE_FEATURES>
7
1 1 acceptor
1 2 acceptor
1 3 cation
5 2 17 22 26 28 rings
6 12 15 16 20 21 23 rings
6 14 18 19 24 25 27 rings
6 3 5 6 7 8 9 rings

> <PUBCHEM_HEAVY_ATOM_COUNT>
28

> <PUBCHEM_ATOM_DEF_STEREO_COUNT>
0

> <PUBCHEM_ATOM_UDEF_STEREO_COUNT>
0

> <PUBCHEM_BOND_DEF_STEREO_COUNT>
0

> <PUBCHEM_BOND_UDEF_STEREO_COUNT>
0

> <PUBCHEM_ISOTOPIC_ATOM_COUNT>
0

> <PUBCHEM_COMPONENT_COUNT>
1

> <PUBCHEM_CACTVS_TAUTO_COUNT>
1

> <PUBCHEM_CONFORMER_ID>
00D0566600000001

> <PUBCHEM_MMFF94_ENERGY>
91.9037

> <PUBCHEM_FEATURE_SELFOVERLAP>
35.523

> <PUBCHEM_SHAPE_FINGERPRINT>
10076449 9 17989197158631058357
100830 39 18408040689545939628
10369192 42 16845576408922604197
11101153 10 18188215406687366980
11135926 11 13901908865459081252
11315181 36 16153712024274453661
12107698 1 18408884066171839400
12166972 35 18114464547947767172
12236239 1 17167578310602100410
12664476 115 18060416933229906344
12788726 201 18336820919263002457
13073987 5 18339643330946121330
13914758 101 16515677827733301700
14068700 675 18337106882132598645
14118638 360 18410573942740225258
14251764 18 18186803578570774708
14856354 85 18337394936598708566
15183329 4 18113337505985019336
15419008 47 17846775217950742816
15849732 13 13398633857609874531
19489759 90 18408041818974431162
20281389 69 18410854370219565408
21236236 1 18410292488805704405
21792961 116 18131073702182825274
23081809 10 17676207962486147032
23522609 53 17532112544208513804
23559900 14 18337668749274031417
249057 25 17895204311418237380
283562 15 18410292463990507531
350125 39 18413109480624964769
3633792 109 17023170592657206851
4197921 191 18260552230076979620
4325135 7 18273216400114442357
44317340 157 12967118442057931586
445580 37 18334018285245261788
5080951 261 16772930606466139910
5104073 3 18266462010080820578
59755656 215 18273217499605419358
7226269 152 18259984899067161747

> <PUBCHEM_SHAPE_MULTIPOLES>
554.53
21.65
2.44
1.3
41.11
1.81
-0.03
-0.94
0.28
-4.85
-0.11
0.1
0.21
-0.31

> <PUBCHEM_SHAPE_SELFOVERLAP>
1198.418

> <PUBCHEM_SHAPE_VOLUME>
302.8

> <PUBCHEM_COORDINATE_TYPE>
2
5
10

$$$$


431865
  -OEChem-12311612453D

 58 61  0     1  0  0  0  0  0999 V2000
    3.0810   -0.2713   -0.1857 N   0  0  0  0  0  0  0  0  0  0  0  0
    0.2392   -0.0168    0.2811 N   0  0  0  0  0  0  0  0  0  0  0  0
    4.4818   -0.1430    0.2112 C   0  0  0  0  0  0  0  0  0  0  0  0
    5.1498   -1.5224    0.2172 C   0  0  0  0  0  0  0  0  0  0  0  0
    5.2062    0.8178   -0.7380 C   0  0  0  0  0  0  0  0  0  0  0  0
    2.4205    1.0398   -0.1985 C   0  0  0  0  0  0  0  0  0  0  0  0
    2.3691   -1.1956    0.7054 C   0  0  0  0  0  0  0  0  0  0  0  0
    6.6365   -1.4195    0.5535 C   0  0  0  0  0  0  0  0  0  0  0  0
    6.6928    0.9183   -0.3999 C   0  0  0  0  0  0  0  0  0  0  0  0
    0.9507    0.9062   -0.6116 C   0  0  0  0  0  0  0  0  0  0  0  0
    0.8990   -1.3282    0.2932 C   0  0  0  0  0  0  0  0  0  0  0  0
    7.3596   -0.4542   -0.3818 C   0  0  0  0  0  0  0  0  0  0  0  0
   -1.1621   -0.1443   -0.1139 C   0  0  1  0  0  0  0  0  0  0  0  0
   -1.8539   -1.2264    0.7451 C   0  0  0  0  0  0  0  0  0  0  0  0
   -1.8635    1.2021   -0.0572 C   0  0  0  0  0  0  0  0  0  0  0  0
   -3.2806   -1.4976    0.3255 C   0  0  0  0  0  0  0  0  0  0  0  0
   -2.8548    1.4802   -0.9779 C   0  0  0  0  0  0  0  0  0  0  0  0
   -1.4909    2.1111    0.9140 C   0  0  0  0  0  0  0  0  0  0  0  0
   -4.3063   -0.7658    0.9004 C   0  0  0  0  0  0  0  0  0  0  0  0
   -3.5334   -2.4721   -0.6256 C   0  0  0  0  0  0  0  0  0  0  0  0
   -3.4989    2.7163   -0.9258 C   0  0  0  0  0  0  0  0  0  0  0  0
   -2.1353    3.3471    0.9661 C   0  0  0  0  0  0  0  0  0  0  0  0
   -3.1393    3.6497    0.0461 C   0  0  0  0  0  0  0  0  0  0  0  0
   -5.6227   -1.0158    0.5132 C   0  0  0  0  0  0  0  0  0  0  0  0
   -4.8499   -2.7219   -1.0128 C   0  0  0  0  0  0  0  0  0  0  0  0
   -5.8946   -1.9936   -0.4433 C   0  0  0  0  0  0  0  0  0  0  0  0
    4.5452    0.2706    1.2285 H   0  0  0  0  0  0  0  0  0  0  0  0
    5.0320   -2.0122   -0.7582 H   0  0  0  0  0  0  0  0  0  0  0  0
    4.7243   -2.1872    0.9752 H   0  0  0  0  0  0  0  0  0  0  0  0
    4.8206    1.8396   -0.6693 H   0  0  0  0  0  0  0  0  0  0  0  0
    5.0928    0.4894   -1.7794 H   0  0  0  0  0  0  0  0  0  0  0  0
    2.8591    1.7081   -0.9448 H   0  0  0  0  0  0  0  0  0  0  0  0
    2.4897    1.5318    0.7809 H   0  0  0  0  0  0  0  0  0  0  0  0
    2.4366   -0.8688    1.7519 H   0  0  0  0  0  0  0  0  0  0  0  0
    2.7685   -2.2119    0.6418 H   0  0  0  0  0  0  0  0  0  0  0  0
    7.0995   -2.4107    0.4881 H   0  0  0  0  0  0  0  0  0  0  0  0
    6.7547   -1.0794    1.5899 H   0  0  0  0  0  0  0  0  0  0  0  0
    6.8137    1.3950    0.5807 H   0  0  0  0  0  0  0  0  0  0  0  0
    7.1952    1.5613   -1.1316 H   0  0  0  0  0  0  0  0  0  0  0  0
    0.5381    1.9191   -0.6118 H   0  0  0  0  0  0  0  0  0  0  0  0
    0.9012    0.5495   -1.6505 H   0  0  0  0  0  0  0  0  0  0  0  0
    0.8236   -1.8270   -0.6823 H   0  0  0  0  0  0  0  0  0  0  0  0
    0.4836   -1.9908    1.0567 H   0  0  0  0  0  0  0  0  0  0  0  0
    8.4052   -0.3523   -0.0701 H   0  0  0  0  0  0  0  0  0  0  0  0
    7.3675   -0.8687   -1.3975 H   0  0  0  0  0  0  0  0  0  0  0  0
   -1.1922   -0.4868   -1.1603 H   0  0  0  0  0  0  0  0  0  0  0  0
   -1.3673   -2.2040    0.6816 H   0  0  0  0  0  0  0  0  0  0  0  0
   -1.8363   -0.9473    1.8081 H   0  0  0  0  0  0  0  0  0  0  0  0
   -3.1377    0.7663   -1.7456 H   0  0  0  0  0  0  0  0  0  0  0  0
   -0.7346    1.8955    1.6625 H   0  0  0  0  0  0  0  0  0  0  0  0
   -4.1088   -0.0085    1.6535 H   0  0  0  0  0  0  0  0  0  0  0  0
   -2.7270   -3.0420   -1.0780 H   0  0  0  0  0  0  0  0  0  0  0  0
   -4.2796    2.9523   -1.6430 H   0  0  0  0  0  0  0  0  0  0  0  0
   -1.8603    4.0717    1.7270 H   0  0  0  0  0  0  0  0  0  0  0  0
   -3.6419    4.6115    0.0876 H   0  0  0  0  0  0  0  0  0  0  0  0
   -6.4362   -0.4499    0.9579 H   0  0  0  0  0  0  0  0  0  0  0  0
   -5.0617   -3.4825   -1.7585 H   0  0  0  0  0  0  0  0  0  0  0  0
   -6.9198   -2.1882   -0.7448 H   0  0  0  0  0  0  0  0  0  0  0  0
  1  3  1  0  0  0  0
  1  6  1  0  0  0  0
  1  7  1  0  0  0  0
  2 10  1  0  0  0  0
  2 11  1  0  0  0  0
  2 13  1  0  0  0  0
  3  4  1  0  0  0  0
  3  5  1  0  0  0  0
  3 27  1  0  0  0  0
  4  8  1  0  0  0  0
  4 28  1  0  0  0  0
  4 29  1  0  0  0  0
  5  9  1  0  0  0  0
  5 30  1  0  0  0  0
  5 31  1  0  0  0  0
  6 10  1  0  0  0  0
  6 32  1  0  0  0  0
  6 33  1  0  0  0  0
  7 11  1  0  0  0  0
  7 34  1  0  0  0  0
  7 35  1  0  0  0  0
  8 12  1  0  0  0  0
  8 36  1  0  0  0  0
  8 37  1  0  0  0  0
  9 12  1  0  0  0  0
  9 38  1  0  0  0  0
  9 39  1  0  0  0  0
 10 40  1  0  0  0  0
 10 41  1  0  0  0  0
 11 42  1  0  0  0  0
 11 43  1  0  0  0  0
 12 44  1  0  0  0  0
 12 45  1  0  0  0  0
 13 14  1  0  0  0  0
 13 15  1  0  0  0  0
 13 46  1  0  0  0  0
 14 16  1  0  0  0  0
 14 47  1  0  0  0  0
 14 48  1  0  0  0  0
 15 17  2  0  0  0  0
 15 18  1  0  0  0  0
 16 19  2  0  0  0  0
 16 20  1  0  0  0  0
 17 21  1  0  0  0  0
 17 49  1  0  0  0  0
 18 22  2  0  0  0  0
 18 50  1  0  0  0  0
 19 24  1  0  0  0  0
 19 51  1  0  0  0  0
 20 25  2  0  0  0  0
 20 52  1  0  0  0  0
 21 23  2  0  0  0  0
 21 53  1  0  0  0  0
 22 23  1  0  0  0  0
 22 54  1  0  0  0  0
 23 55  1  0  0  0  0
 24 26  2  0  0  0  0
 24 56  1  0  0  0  0
 25 26  1  0  0  0  0
 25 57  1  0  0  0  0
 26 58  1  0  0  0  0
M  END
> <PUBCHEM_COMPOUND_CID>
431865

> <PUBCHEM_CONFORMER_RMSD>
0.8

> <PUBCHEM_CONFORMER_DIVERSEORDER>
1
48
22
16
30
3
8
25
12
38
21
43
37
36
41
29
23
15
49
34
2
45
44
50
14
6
7
20
18
52
46
17
33
54
53
13
5
51
31
40
28
35
32
42
9
4
27
11
24
19
10
47
26
39

> <PUBCHEM_MMFF94_PARTIAL_CHARGES>
31
1 -0.81
10 0.27
11 0.27
13 0.41
14 0.14
15 -0.14
16 -0.14
17 -0.15
18 -0.15
19 -0.15
2 -0.81
20 -0.15
21 -0.15
22 -0.15
23 -0.15
24 -0.15
25 -0.15
26 -0.15
3 0.27
49 0.15
50 0.15
51 0.15
52 0.15
53 0.15
54 0.15
55 0.15
56 0.15
57 0.15
58 0.15
6 0.27
7 0.27

> <PUBCHEM_EFFECTIVE_ROTOR_COUNT>
7.4

> <PUBCHEM_PHARMACOPHORE_FEATURES>
6
1 1 cation
1 2 cation
6 1 2 6 7 10 11 rings
6 15 17 18 21 22 23 rings
6 16 19 20 24 25 26 rings
6 3 4 5 8 9 12 rings

> <PUBCHEM_HEAVY_ATOM_COUNT>
26

> <PUBCHEM_ATOM_DEF_STEREO_COUNT>
0

> <PUBCHEM_ATOM_UDEF_STEREO_COUNT>
1

> <PUBCHEM_BOND_DEF_STEREO_COUNT>
0

> <PUBCHEM_BOND_UDEF_STEREO_COUNT>
0

> <PUBCHEM_ISOTOPIC_ATOM_COUNT>
0

> <PUBCHEM_COMPONENT_COUNT>
1

> <PUBCHEM_CACTVS_TAUTO_COUNT>
1

> <PUBCHEM_CONFORMER_ID>
000696F900000001

> <PUBCHEM_MMFF94_ENERGY>
68.9905

> <PUBCHEM_FEATURE_SELFOVERLAP>
30.451

> <PUBCHEM_SHAPE_FINGERPRINT>
10050765 1 18193839245385942834
10076449 9 18408318900879917821
10411042 1 18267583688630708279
10595046 47 18408323285730420186
11056379 131 18341618096267434215
11101153 10 18261960759864065732
11524674 6 16415481579483849271
11545043 162 18272926103728619216
12107183 9 17758391877816075882
12107698 1 18410855494915278652
12166972 35 18114183068670587196
12760667 363 18409730698868005907
12788726 201 18335412466037125075
13073987 5 18408319970094685202
13533116 47 18337393867842681876
13540713 5 17970332733488824523
13583140 156 17631720591911841498
13631057 29 18410570691096157987
13782708 43 17632574985240138758
14068700 675 18337107972748343053
14118638 360 18260831501840890830
14347332 77 18410855468960748094
14508225 48 18335413625773337877
15131766 46 15838995658582024056
15196674 1 18334013861761164976
16087824 20 18338516341020068317
17844677 252 18410299112315148876
17857418 61 18410013264692615126
18927931 339 18411985762746008127
19427546 20 18335137570929050109
21236236 1 18334576819613547848
21267235 1 18335707191035455147
21304303 172 18060424634338168721
2132832 1 18114467846018362188
21424621 283 11386906875731861167
21641784 216 18114475525577902885
23081809 10 17676492710185758710
23402539 116 18410854386750646599
23522609 53 18123784008130392880
23557571 272 18342179959625609237
23559900 14 18116150167380142393
249057 25 17967821557196365572
25147074 1 17968648316308915162
255183 313 18198082300198168425
283562 15 18334857204148983947
3004659 81 18114737243567771011
335352 9 18411976984713595831
34797466 226 17846225492686480020
350125 39 18409451392380359345
4214541 1 18335421232038826444
4325135 7 18408887360585738054
4409770 3 18338508656900920333
497634 4 18186799162721889868
504579 68 18041572411983681846
5080951 261 16772929498401611206
5104073 3 18334289835043233672
5171179 24 18129088091431222409
5969126 39 18342450465815060829
59755656 520 18190174595042998789
6700243 42 17843435988014947540
7237137 82 18335421261871508781
9996256 80 18411983555311996914

> <PUBCHEM_SHAPE_MULTIPOLES>
525.11
16.84
3.51
0.97
26.15
2.47
-0.01
-7.73
-1.72
-6.26
-0.08
-0.53
0.1
-1.05

> <PUBCHEM_SHAPE_SELFOVERLAP>
1115.339

> <PUBCHEM_SHAPE_VOLUME>
288.4

> <PUBCHEM_COORDINATE_TYPE>
2
5
10

$$$$

130829
  -OEChem-12311612483D

 41 42  0     1  0  0  0  0  0999 V2000
   -0.6023    1.4977   -1.6667 O   0  0  0  0  0  0  0  0  0  0  0  0
    3.1719   -1.6993    1.7365 O   0  0  0  0  0  0  0  0  0  0  0  0
   -2.2427   -2.1942   -0.3069 N   0  0  0  0  0  0  0  0  0  0  0  0
   -1.3386    0.0289    0.1309 C   0  0  1  0  0  0  0  0  0  0  0  0
   -0.3050    1.1117   -0.3160 C   0  0  2  0  0  0  0  0  0  0  0  0
   -2.7632    0.6034    0.2606 C   0  0  0  0  0  0  0  0  0  0  0  0
   -0.4171    2.3832    0.5609 C   0  0  0  0  0  0  0  0  0  0  0  0
   -2.8045    1.8344    1.1589 C   0  0  0  0  0  0  0  0  0  0  0  0
   -1.8454    2.9151    0.6790 C   0  0  0  0  0  0  0  0  0  0  0  0
   -1.3756   -1.1796   -0.8160 C   0  0  0  0  0  0  0  0  0  0  0  0
    1.1385    0.5908   -0.2556 C   0  0  0  0  0  0  0  0  0  0  0  0
    1.5010   -0.3273    0.7253 C   0  0  0  0  0  0  0  0  0  0  0  0
    2.0743    1.0398   -1.1825 C   0  0  0  0  0  0  0  0  0  0  0  0
   -1.8017   -2.6748    1.0157 C   0  0  0  0  0  0  0  0  0  0  0  0
   -2.3405   -3.3408   -1.2289 C   0  0  0  0  0  0  0  0  0  0  0  0
    2.8119   -0.8009    0.7798 C   0  0  0  0  0  0  0  0  0  0  0  0
    3.3850    0.5663   -1.1280 C   0  0  0  0  0  0  0  0  0  0  0  0
    3.7539   -0.3542   -0.1470 C   0  0  0  0  0  0  0  0  0  0  0  0
   -1.0721   -0.2675    1.1473 H   0  0  0  0  0  0  0  0  0  0  0  0
   -3.4547   -0.1381    0.6767 H   0  0  0  0  0  0  0  0  0  0  0  0
   -3.1498    0.8723   -0.7309 H   0  0  0  0  0  0  0  0  0  0  0  0
    0.2111    3.1826    0.1466 H   0  0  0  0  0  0  0  0  0  0  0  0
   -0.0395    2.1746    1.5709 H   0  0  0  0  0  0  0  0  0  0  0  0
   -2.5493    1.5470    2.1864 H   0  0  0  0  0  0  0  0  0  0  0  0
   -3.8242    2.2355    1.1849 H   0  0  0  0  0  0  0  0  0  0  0  0
   -2.1785    3.2960   -0.2940 H   0  0  0  0  0  0  0  0  0  0  0  0
   -1.8651    3.7615    1.3749 H   0  0  0  0  0  0  0  0  0  0  0  0
   -0.3679   -1.5789   -0.9809 H   0  0  0  0  0  0  0  0  0  0  0  0
   -1.7411   -0.8521   -1.7977 H   0  0  0  0  0  0  0  0  0  0  0  0
   -0.3368    0.7786   -2.2645 H   0  0  0  0  0  0  0  0  0  0  0  0
    0.8178   -0.6803    1.4881 H   0  0  0  0  0  0  0  0  0  0  0  0
    1.8205    1.7680   -1.9473 H   0  0  0  0  0  0  0  0  0  0  0  0
   -1.9993   -1.9479    1.8085 H   0  0  0  0  0  0  0  0  0  0  0  0
   -0.7403   -2.9480    1.0250 H   0  0  0  0  0  0  0  0  0  0  0  0
   -2.3756   -3.5632    1.3070 H   0  0  0  0  0  0  0  0  0  0  0  0
   -2.6993   -3.0115   -2.2103 H   0  0  0  0  0  0  0  0  0  0  0  0
   -3.0675   -4.0720   -0.8584 H   0  0  0  0  0  0  0  0  0  0  0  0
   -1.3752   -3.8425   -1.3622 H   0  0  0  0  0  0  0  0  0  0  0  0
    4.1197    0.9168   -1.8471 H   0  0  0  0  0  0  0  0  0  0  0  0
    4.7785   -0.7148   -0.1150 H   0  0  0  0  0  0  0  0  0  0  0  0
    4.1132   -1.9176    1.6256 H   0  0  0  0  0  0  0  0  0  0  0  0
  1  5  1  0  0  0  0
  1 30  1  0  0  0  0
  2 16  1  0  0  0  0
  2 41  1  0  0  0  0
  3 10  1  0  0  0  0
  3 14  1  0  0  0  0
  3 15  1  0  0  0  0
  4  5  1  0  0  0  0
  4  6  1  0  0  0  0
  4 10  1  0  0  0  0
  4 19  1  0  0  0  0
  5  7  1  0  0  0  0
  5 11  1  0  0  0  0
  6  8  1  0  0  0  0
  6 20  1  0  0  0  0
  6 21  1  0  0  0  0
  7  9  1  0  0  0  0
  7 22  1  0  0  0  0
  7 23  1  0  0  0  0
  8  9  1  0  0  0  0
  8 24  1  0  0  0  0
  8 25  1  0  0  0  0
  9 26  1  0  0  0  0
  9 27  1  0  0  0  0
 10 28  1  0  0  0  0
 10 29  1  0  0  0  0
 11 12  2  0  0  0  0
 11 13  1  0  0  0  0
 12 16  1  0  0  0  0
 12 31  1  0  0  0  0
 13 17  2  0  0  0  0
 13 32  1  0  0  0  0
 14 33  1  0  0  0  0
 14 34  1  0  0  0  0
 14 35  1  0  0  0  0
 15 36  1  0  0  0  0
 15 37  1  0  0  0  0
 15 38  1  0  0  0  0
 16 18  2  0  0  0  0
 17 18  1  0  0  0  0
 17 39  1  0  0  0  0
 18 40  1  0  0  0  0
M  END
> <PUBCHEM_COMPOUND_CID>
130829

> <PUBCHEM_CONFORMER_RMSD>
0.6

> <PUBCHEM_CONFORMER_DIVERSEORDER>
4
34
5
13
28
54
57
12
37
33
30
51
35
14
56
53
45
29
31
46
39
48
23
17
21
58
2
38
52
47
41
27
6
43
19
49
55
1
44
40
50
36
24
22
18
32
11
26
9
16
20
25
10
7
15
8
42
3

> <PUBCHEM_MMFF94_PARTIAL_CHARGES>
19
1 -0.68
10 0.27
11 -0.14
12 -0.15
13 -0.15
14 0.27
15 0.27
16 0.08
17 -0.15
18 -0.15
2 -0.53
3 -0.81
30 0.4
31 0.15
32 0.15
39 0.15
40 0.15
41 0.45
5 0.42

> <PUBCHEM_EFFECTIVE_ROTOR_COUNT>
4.2

> <PUBCHEM_PHARMACOPHORE_FEATURES>
6
1 1 acceptor
1 1 donor
1 2 donor
1 3 cation
6 11 12 13 16 17 18 rings
6 4 5 6 7 8 9 rings

> <PUBCHEM_HEAVY_ATOM_COUNT>
18

> <PUBCHEM_ATOM_DEF_STEREO_COUNT>
0

> <PUBCHEM_ATOM_UDEF_STEREO_COUNT>
2

> <PUBCHEM_BOND_DEF_STEREO_COUNT>
0

> <PUBCHEM_BOND_UDEF_STEREO_COUNT>
0

> <PUBCHEM_ISOTOPIC_ATOM_COUNT>
0

> <PUBCHEM_COMPONENT_COUNT>
1

> <PUBCHEM_CACTVS_TAUTO_COUNT>
3

> <PUBCHEM_CONFORMER_ID>
0001FF0D00000004

> <PUBCHEM_MMFF94_ENERGY>
53.6155

> <PUBCHEM_FEATURE_SELFOVERLAP>
30.446

> <PUBCHEM_SHAPE_FINGERPRINT>
11578080 2 18044631282601204517
12173636 292 18197497320550435084
12553582 1 18125163989569931975
12788726 201 18339651130490569451
13032168 30 18116438235664259504
13083527 12 17408492483657533859
13140716 1 18269560596834889961
13538477 17 18409172108032031508
14081887 123 18270102639166998592
14178342 30 18339348700542495170
14787075 74 17618508022590044804
15001771 113 18263360446354654025
15279307 12 18262245413005305250
15309172 13 18121788226895199561
15375462 189 18261682583073481059
15669948 3 18411706478023107708
15906896 17 18338246989664545163
16752209 62 18339353064076358149
16945 1 18342743983368664997
20028762 73 17846506967753140983
20442098 301 18410860949481689330
20510252 161 17986682480084157665
20645476 183 18265065651434901308
21452121 199 17768235061915249935
21634736 98 18191036788078436164
21731228 192 18052822446753747425
21731516 1 18052822730174473087
22112679 90 17982759624649002273
22445834 79 18114750334812634200
23184049 29 18198338644429231097
23402539 116 18131628972592407285
23419403 2 16896170582519389685
23500284 5 18335140954978280899
23557571 272 18130508625930377320
23559900 14 18059581231494065604
23598288 3 18338250361171869359
23598291 2 18187374198919114062
23598294 1 18270134503101988610
23728640 28 18340767040045246283
257057 1 18053932124780141679
2748010 2 18056473087388157965
427121 178 17127086454600440545
43471831 8 17979923713752062817
5845 1 12285672414638699413
58807428 26 17981334387075749153
6992083 37 18043806494529652052
7364860 26 17190943173336921239
77492 1 18188500077161482144
81228 2 18272362083906510001
84936 31 14926807710908112974
90525 40 18118687616905123608

> <PUBCHEM_SHAPE_MULTIPOLES>
353.71
5.5
3.44
1.39
4.04
1.23
0.01
1.4
-0.49
-3.95
-0.17
0.4
0.32
-1.61

> <PUBCHEM_SHAPE_SELFOVERLAP>
732.893

> <PUBCHEM_SHAPE_VOLUME>
202

> <PUBCHEM_COORDINATE_TYPE>
2
5
10

$$$$

13544015
  -OEChem-12311612493D

 43 44  0     1  0  0  0  0  0999 V2000
    4.4159   -2.4031    0.4603 Cl  0  0  0  0  0  0  0  0  0  0  0  0
    6.1141    0.3455    0.6482 Cl  0  0  0  0  0  0  0  0  0  0  0  0
    0.0738    0.3761   -2.0331 O   0  0  0  0  0  0  0  0  0  0  0  0
   -2.3135   -1.8331   -0.0235 N   0  0  0  0  0  0  0  0  0  0  0  0
   -0.6240    0.5610    0.1909 N   0  0  0  0  0  0  0  0  0  0  0  0
   -2.8048   -0.5512    0.4878 C   0  0  1  0  0  0  0  0  0  0  0  0
   -2.0296    0.6199   -0.1445 C   0  0  1  0  0  0  0  0  0  0  0  0
   -4.3078   -0.4427    0.2016 C   0  0  0  0  0  0  0  0  0  0  0  0
   -2.6111    1.9698    0.2923 C   0  0  0  0  0  0  0  0  0  0  0  0
   -4.8691    0.9061    0.6440 C   0  0  0  0  0  0  0  0  0  0  0  0
   -4.1068    2.0635    0.0084 C   0  0  0  0  0  0  0  0  0  0  0  0
   -2.5387   -1.9239   -1.4639 C   0  0  0  0  0  0  0  0  0  0  0  0
   -2.9679   -2.9396    0.6707 C   0  0  0  0  0  0  0  0  0  0  0  0
   -0.3019    0.6341    1.6181 C   0  0  0  0  0  0  0  0  0  0  0  0
    0.3292    0.4397   -0.8310 C   0  0  0  0  0  0  0  0  0  0  0  0
    1.7539    0.3998   -0.4652 C   0  0  0  0  0  0  0  0  0  0  0  0
    2.3559   -0.8217   -0.2051 C   0  0  0  0  0  0  0  0  0  0  0  0
    2.4690    1.5850   -0.3861 C   0  0  0  0  0  0  0  0  0  0  0  0
    3.7063   -0.8589    0.1426 C   0  0  0  0  0  0  0  0  0  0  0  0
    3.8192    1.5478   -0.0384 C   0  0  0  0  0  0  0  0  0  0  0  0
    4.4380    0.3259    0.2258 C   0  0  0  0  0  0  0  0  0  0  0  0
   -2.6864   -0.5236    1.5776 H   0  0  0  0  0  0  0  0  0  0  0  0
   -2.1429    0.6228   -1.2323 H   0  0  0  0  0  0  0  0  0  0  0  0
   -4.8837   -1.2109    0.7279 H   0  0  0  0  0  0  0  0  0  0  0  0
   -4.5475   -0.5261   -0.8628 H   0  0  0  0  0  0  0  0  0  0  0  0
   -2.0876    2.7887   -0.2168 H   0  0  0  0  0  0  0  0  0  0  0  0
   -2.4821    2.1385    1.3665 H   0  0  0  0  0  0  0  0  0  0  0  0
   -4.8122    0.9859    1.7366 H   0  0  0  0  0  0  0  0  0  0  0  0
   -5.9297    0.9724    0.3749 H   0  0  0  0  0  0  0  0  0  0  0  0
   -4.2742    2.0619   -1.0757 H   0  0  0  0  0  0  0  0  0  0  0  0
   -4.4961    3.0145    0.3892 H   0  0  0  0  0  0  0  0  0  0  0  0
   -2.0656   -1.1442   -2.0607 H   0  0  0  0  0  0  0  0  0  0  0  0
   -3.5864   -2.0229   -1.7638 H   0  0  0  0  0  0  0  0  0  0  0  0
   -2.0559   -2.8456   -1.8171 H   0  0  0  0  0  0  0  0  0  0  0  0
   -2.4390   -3.8715    0.4376 H   0  0  0  0  0  0  0  0  0  0  0  0
   -4.0143   -3.0943    0.3878 H   0  0  0  0  0  0  0  0  0  0  0  0
   -2.9073   -2.8226    1.7587 H   0  0  0  0  0  0  0  0  0  0  0  0
   -0.7358   -0.2114    2.1550 H   0  0  0  0  0  0  0  0  0  0  0  0
   -0.6446    1.5771    2.0464 H   0  0  0  0  0  0  0  0  0  0  0  0
    0.7744    0.5898    1.7940 H   0  0  0  0  0  0  0  0  0  0  0  0
    1.7767   -1.7397   -0.2718 H   0  0  0  0  0  0  0  0  0  0  0  0
    1.9938    2.5406   -0.5898 H   0  0  0  0  0  0  0  0  0  0  0  0
    4.3741    2.4807    0.0217 H   0  0  0  0  0  0  0  0  0  0  0  0
  1 19  1  0  0  0  0
  2 21  1  0  0  0  0
  3 15  2  0  0  0  0
  4  6  1  0  0  0  0
  4 12  1  0  0  0  0
  4 13  1  0  0  0  0
  5  7  1  0  0  0  0
  5 14  1  0  0  0  0
  5 15  1  0  0  0  0
  6  7  1  0  0  0  0
  6  8  1  0  0  0  0
  6 22  1  0  0  0  0
  7  9  1  0  0  0  0
  7 23  1  0  0  0  0
  8 10  1  0  0  0  0
  8 24  1  0  0  0  0
  8 25  1  0  0  0  0
  9 11  1  0  0  0  0
  9 26  1  0  0  0  0
  9 27  1  0  0  0  0
 10 11  1  0  0  0  0
 10 28  1  0  0  0  0
 10 29  1  0  0  0  0
 11 30  1  0  0  0  0
 11 31  1  0  0  0  0
 12 32  1  0  0  0  0
 12 33  1  0  0  0  0
 12 34  1  0  0  0  0
 13 35  1  0  0  0  0
 13 36  1  0  0  0  0
 13 37  1  0  0  0  0
 14 38  1  0  0  0  0
 14 39  1  0  0  0  0
 14 40  1  0  0  0  0
 15 16  1  0  0  0  0
 16 17  2  0  0  0  0
 16 18  1  0  0  0  0
 17 19  1  0  0  0  0
 17 41  1  0  0  0  0
 18 20  2  0  0  0  0
 18 42  1  0  0  0  0
 19 21  2  0  0  0  0
 20 21  1  0  0  0  0
 20 43  1  0  0  0  0
M  END
> <PUBCHEM_COMPOUND_CID>
13544015

> <PUBCHEM_CONFORMER_RMSD>
0.8

> <PUBCHEM_CONFORMER_DIVERSEORDER>
3
5
30
38
47
59
31
18
49
28
39
44
6
20
68
45
57
19
54
29
11
8
15
60
65
4
55
10
53
21
16
61
48
46
14
22
12
35
56
27
40
69
25
67
36
51
13
64
41
42
23
37
52
62
24
17
66
32
50
26
7
34
9
63
58
2
33
43
1

> <PUBCHEM_MMFF94_PARTIAL_CHARGES>
20
1 -0.18
12 0.27
13 0.27
14 0.3
15 0.54
16 0.09
17 -0.15
18 -0.15
19 0.18
2 -0.18
20 -0.15
21 0.18
3 -0.57
4 -0.81
41 0.15
42 0.15
43 0.15
5 -0.66
6 0.27
7 0.3

> <PUBCHEM_EFFECTIVE_ROTOR_COUNT>
5.2

> <PUBCHEM_PHARMACOPHORE_FEATURES>
4
1 3 acceptor
1 4 cation
6 16 17 18 19 20 21 rings
6 6 7 8 9 10 11 rings

> <PUBCHEM_HEAVY_ATOM_COUNT>
21

> <PUBCHEM_ATOM_DEF_STEREO_COUNT>
0

> <PUBCHEM_ATOM_UDEF_STEREO_COUNT>
2

> <PUBCHEM_BOND_DEF_STEREO_COUNT>
0

> <PUBCHEM_BOND_UDEF_STEREO_COUNT>
0

> <PUBCHEM_ISOTOPIC_ATOM_COUNT>
0

> <PUBCHEM_COMPONENT_COUNT>
1

> <PUBCHEM_CACTVS_TAUTO_COUNT>
1

> <PUBCHEM_CONFORMER_ID>
00CEAA4F00000003

> <PUBCHEM_MMFF94_ENERGY>
63.7028

> <PUBCHEM_FEATURE_SELFOVERLAP>
20.297

> <PUBCHEM_SHAPE_FINGERPRINT>
10366900 7 16559028264329081330
10616163 171 18339928211320454614
10906281 52 17345771715167731089
11370993 144 18337389348945892182
11370993 70 18411982425382377999
11405975 8 18411138047744320376
11552529 35 18270113638177517951
12107183 9 17906171746367933080
12236239 1 17821731650220819409
12251169 10 18410576180064602836
12467345 10 18409729530256846738
12500047 106 18413385432305140841
12633257 1 18270404884204560570
12670546 56 18410851066624765189
12788726 201 17416972737701663617
13167823 11 18408323285102679378
13533116 47 17916584220246223938
13583140 156 18060411456539805848
13675066 3 17894639140665997545
13760787 19 18412830209208901252
14289901 80 18338237171295615872
14341114 176 18412549778025242528
14420673 8 18192436260185981786
15042514 8 18335431214038707867
15196674 1 18410293592564956674
15375358 24 17346606252908619173
15788980 27 18060139842744677100
17349148 13 17703792470415215316
17492 89 18335988665590484562
1813 80 16805329864198922236
18186145 218 16081366409808880972
19050596 39 18410575127945256204
19141452 34 18260548909291728151
200 152 18413106177873975608
20281475 54 18114181951894265262
21033648 29 16558457596546341232
21065198 57 18409731759471713912
21065199 12 18411419539900666160
21673915 165 18334856134528138130
21859007 373 17679572351307239397
23402539 116 18040430010279873536
23557571 272 18201447981676976729
23559900 14 18343021060768083698
23728640 28 18412829105629620603
26918003 58 18341894104061935520
300161 21 18412820279233917824
3545911 37 18341615901919103400
3633792 109 18189599589358516223
4073 2 18260552264368107570
4214541 1 18409730655501588553
5104073 3 18412547595675415770
5364581 5 18055899138419469256
559249 180 18337387119689307218
58051976 100 18409733979753268469
5924683 9 18200868586694543583
633830 44 16660650664980711672
67856867 119 18262801907823944852
69090 78 18408605829747935577
7097593 13 18408887347410484428
9709674 26 18341902878553910535

> <PUBCHEM_SHAPE_MULTIPOLES>
420.08
11.5
2.5
1.14
7.56
1.42
0.24
-0.15
-2.49
-1.39
-0.16
-0.28
0.1
-0.49

> <PUBCHEM_SHAPE_SELFOVERLAP>
853.598

> <PUBCHEM_SHAPE_VOLUME>
247.9

> <PUBCHEM_COORDINATE_TYPE>
2
5
10

$$$$

21595398
  -OEChem-12311612503D

 59 61  0     0  0  0  0  0  0999 V2000
   -2.1415    1.7598   -1.5554 O   0  0  0  0  0  0  0  0  0  0  0  0
    1.7333   -0.2641   -0.4783 N   0  0  0  0  0  0  0  0  0  0  0  0
   -2.5001   -0.2663   -0.3864 N   0  0  0  0  0  0  0  0  0  0  0  0
   -1.1443   -0.7297   -0.2263 C   0  0  0  0  0  0  0  0  0  0  0  0
   -0.4241   -0.7817   -1.5734 C   0  0  0  0  0  0  0  0  0  0  0  0
   -0.3716    0.1560    0.7515 C   0  0  0  0  0  0  0  0  0  0  0  0
    1.0445   -1.1745   -1.4035 C   0  0  0  0  0  0  0  0  0  0  0  0
    1.0949   -0.2689    0.8453 C   0  0  0  0  0  0  0  0  0  0  0  0
    3.1470   -0.6226   -0.3658 C   0  0  0  0  0  0  0  0  0  0  0  0
    3.9883    0.5879    0.0407 C   0  0  0  0  0  0  0  0  0  0  0  0
   -2.8281    1.0559   -0.8104 C   0  0  0  0  0  0  0  0  0  0  0  0
   -3.5744   -1.1785    0.0049 C   0  0  0  0  0  0  0  0  0  0  0  0
   -4.1747    1.5793   -0.3139 C   0  0  0  0  0  0  0  0  0  0  0  0
    5.4516    0.2371    0.1385 C   0  0  0  0  0  0  0  0  0  0  0  0
   -4.2200    3.0982   -0.1234 C   0  0  0  0  0  0  0  0  0  0  0  0
   -4.5692   -1.5184   -0.9121 C   0  0  0  0  0  0  0  0  0  0  0  0
   -3.6039   -1.7093    1.2945 C   0  0  0  0  0  0  0  0  0  0  0  0
   -3.1872    3.5910    0.8936 C   0  0  0  0  0  0  0  0  0  0  0  0
    5.9813   -0.2142    1.3475 C   0  0  0  0  0  0  0  0  0  0  0  0
    6.2756    0.3633   -0.9799 C   0  0  0  0  0  0  0  0  0  0  0  0
   -5.5935   -2.3886   -0.5394 C   0  0  0  0  0  0  0  0  0  0  0  0
   -4.6284   -2.5796    1.6671 C   0  0  0  0  0  0  0  0  0  0  0  0
   -5.6232   -2.9192    0.7501 C   0  0  0  0  0  0  0  0  0  0  0  0
   -3.2549    5.1005    1.0658 C   0  0  0  0  0  0  0  0  0  0  0  0
    7.3348   -0.5390    1.4382 C   0  0  0  0  0  0  0  0  0  0  0  0
    7.6292    0.0383   -0.8892 C   0  0  0  0  0  0  0  0  0  0  0  0
    8.1586   -0.4128    0.3199 C   0  0  0  0  0  0  0  0  0  0  0  0
   -1.1530   -1.7528    0.1737 H   0  0  0  0  0  0  0  0  0  0  0  0
   -0.9216   -1.5022   -2.2346 H   0  0  0  0  0  0  0  0  0  0  0  0
   -0.4578    0.1824   -2.0913 H   0  0  0  0  0  0  0  0  0  0  0  0
   -0.4124    1.2088    0.4444 H   0  0  0  0  0  0  0  0  0  0  0  0
   -0.8304    0.1088    1.7466 H   0  0  0  0  0  0  0  0  0  0  0  0
    1.5190   -1.1344   -2.3918 H   0  0  0  0  0  0  0  0  0  0  0  0
    1.1117   -2.2125   -1.0516 H   0  0  0  0  0  0  0  0  0  0  0  0
    1.1559   -1.2639    1.3061 H   0  0  0  0  0  0  0  0  0  0  0  0
    1.5974    0.4307    1.5219 H   0  0  0  0  0  0  0  0  0  0  0  0
    3.5232   -0.9630   -1.3407 H   0  0  0  0  0  0  0  0  0  0  0  0
    3.2977   -1.4653    0.3225 H   0  0  0  0  0  0  0  0  0  0  0  0
    3.6630    0.9970    1.0047 H   0  0  0  0  0  0  0  0  0  0  0  0
    3.8577    1.4014   -0.6856 H   0  0  0  0  0  0  0  0  0  0  0  0
   -4.9383    1.2953   -1.0462 H   0  0  0  0  0  0  0  0  0  0  0  0
   -4.4340    1.1234    0.6470 H   0  0  0  0  0  0  0  0  0  0  0  0
   -5.2266    3.3841    0.2052 H   0  0  0  0  0  0  0  0  0  0  0  0
   -4.0464    3.5932   -1.0868 H   0  0  0  0  0  0  0  0  0  0  0  0
   -4.5531   -1.1203   -1.9234 H   0  0  0  0  0  0  0  0  0  0  0  0
   -2.8431   -1.4485    2.0251 H   0  0  0  0  0  0  0  0  0  0  0  0
   -2.1727    3.3225    0.5810 H   0  0  0  0  0  0  0  0  0  0  0  0
   -3.3643    3.1096    1.8624 H   0  0  0  0  0  0  0  0  0  0  0  0
    5.3489   -0.3188    2.2252 H   0  0  0  0  0  0  0  0  0  0  0  0
    5.8744    0.7119   -1.9278 H   0  0  0  0  0  0  0  0  0  0  0  0
   -6.3668   -2.6547   -1.2540 H   0  0  0  0  0  0  0  0  0  0  0  0
   -4.6529   -2.9912    2.6719 H   0  0  0  0  0  0  0  0  0  0  0  0
   -6.4208   -3.5968    1.0403 H   0  0  0  0  0  0  0  0  0  0  0  0
   -4.2441    5.4113    1.4170 H   0  0  0  0  0  0  0  0  0  0  0  0
   -2.5143    5.4318    1.8004 H   0  0  0  0  0  0  0  0  0  0  0  0
   -3.0486    5.6126    0.1206 H   0  0  0  0  0  0  0  0  0  0  0  0
    7.7470   -0.8910    2.3794 H   0  0  0  0  0  0  0  0  0  0  0  0
    8.2708    0.1360   -1.7600 H   0  0  0  0  0  0  0  0  0  0  0  0
    9.2124   -0.6660    0.3904 H   0  0  0  0  0  0  0  0  0  0  0  0
  1 11  2  0  0  0  0
  2  7  1  0  0  0  0
  2  8  1  0  0  0  0
  2  9  1  0  0  0  0
  3  4  1  0  0  0  0
  3 11  1  0  0  0  0
  3 12  1  0  0  0  0
  4  5  1  0  0  0  0
  4  6  1  0  0  0  0
  4 28  1  0  0  0  0
  5  7  1  0  0  0  0
  5 29  1  0  0  0  0
  5 30  1  0  0  0  0
  6  8  1  0  0  0  0
  6 31  1  0  0  0  0
  6 32  1  0  0  0  0
  7 33  1  0  0  0  0
  7 34  1  0  0  0  0
  8 35  1  0  0  0  0
  8 36  1  0  0  0  0
  9 10  1  0  0  0  0
  9 37  1  0  0  0  0
  9 38  1  0  0  0  0
 10 14  1  0  0  0  0
 10 39  1  0  0  0  0
 10 40  1  0  0  0  0
 11 13  1  0  0  0  0
 12 16  2  0  0  0  0
 12 17  1  0  0  0  0
 13 15  1  0  0  0  0
 13 41  1  0  0  0  0
 13 42  1  0  0  0  0
 14 19  2  0  0  0  0
 14 20  1  0  0  0  0
 15 18  1  0  0  0  0
 15 43  1  0  0  0  0
 15 44  1  0  0  0  0
 16 21  1  0  0  0  0
 16 45  1  0  0  0  0
 17 22  2  0  0  0  0
 17 46  1  0  0  0  0
 18 24  1  0  0  0  0
 18 47  1  0  0  0  0
 18 48  1  0  0  0  0
 19 25  1  0  0  0  0
 19 49  1  0  0  0  0
 20 26  2  0  0  0  0
 20 50  1  0  0  0  0
 21 23  2  0  0  0  0
 21 51  1  0  0  0  0
 22 23  1  0  0  0  0
 22 52  1  0  0  0  0
 23 53  1  0  0  0  0
 24 54  1  0  0  0  0
 24 55  1  0  0  0  0
 24 56  1  0  0  0  0
 25 27  2  0  0  0  0
 25 57  1  0  0  0  0
 26 27  1  0  0  0  0
 26 58  1  0  0  0  0
 27 59  1  0  0  0  0
M  END
> <PUBCHEM_COMPOUND_CID>
21595398

> <PUBCHEM_CONFORMER_RMSD>
1.2

> <PUBCHEM_CONFORMER_DIVERSEORDER>
1
34
51
13
42
6
5
30
52
46
12
7
40
20
26
15
49
22
43
47
45
14
37
18
28
39
33
16
50
44
48
38
21
35
10
8
41
9
24
17
31
32
25
23
36
2
3
11
53
27
29
4
19

> <PUBCHEM_MMFF94_PARTIAL_CHARGES>
32
1 -0.57
10 0.14
11 0.57
12 0.12
13 0.06
14 -0.14
16 -0.15
17 -0.15
19 -0.15
2 -0.81
20 -0.15
21 -0.15
22 -0.15
23 -0.15
25 -0.15
26 -0.15
27 -0.15
3 -0.48
4 0.3
45 0.15
46 0.15
49 0.15
50 0.15
51 0.15
52 0.15
53 0.15
57 0.15
58 0.15
59 0.15
7 0.27
8 0.27
9 0.27

> <PUBCHEM_EFFECTIVE_ROTOR_COUNT>
10.2

> <PUBCHEM_PHARMACOPHORE_FEATURES>
6
1 1 acceptor
1 2 cation
1 24 hydrophobe
6 12 16 17 21 22 23 rings
6 14 19 20 25 26 27 rings
6 2 4 5 6 7 8 rings

> <PUBCHEM_HEAVY_ATOM_COUNT>
27

> <PUBCHEM_ATOM_DEF_STEREO_COUNT>
0

> <PUBCHEM_ATOM_UDEF_STEREO_COUNT>
0

> <PUBCHEM_BOND_DEF_STEREO_COUNT>
0

> <PUBCHEM_BOND_UDEF_STEREO_COUNT>
0

> <PUBCHEM_ISOTOPIC_ATOM_COUNT>
0

> <PUBCHEM_COMPONENT_COUNT>
1

> <PUBCHEM_CACTVS_TAUTO_COUNT>
1

> <PUBCHEM_CONFORMER_ID>
0149850600000001

> <PUBCHEM_MMFF94_ENERGY>
75.449

> <PUBCHEM_FEATURE_SELFOVERLAP>
30.446

> <PUBCHEM_SHAPE_FINGERPRINT>
10291535 26 18341894048670784025
10319688 45 18268989976445080503
10411042 1 18268146651548107351
11101153 10 18188779486174826796
11315181 36 17603867835807351423
11524674 6 18272090560354220014
11646440 116 17489591195145696666
12082328 90 18409448081967850758
12107698 1 18337391638184780688
12166972 35 18261675978094820436
12741549 16 17917156113228658067
13540713 4 17844545309073337238
13631057 29 18187642539859752051
13782708 43 18341331188674467854
14068700 675 18114746065905325063
14150022 121 18131081428734214993
14713325 29 18342460309743323257
15183329 4 17458339741816080594
15338160 23 18340773654664166577
15419008 47 17988920093573294512
1577012 14 17821729421475482988
15876981 60 18186806876388825269
16114785 44 18198915725869522697
17844677 252 18411139173426723776
17980427 23 17749117685549558854
18927931 339 18334859458827680567
20101258 96 18272085041774197601
20771845 65 17913492613536437459
21033648 29 17917695904127665944
21130935 74 18261667096513902906
21236236 1 18259703402056282771
21315759 40 17530960290091912310
21859007 373 17917132903030698296
21927370 108 17895769482085709729
23081809 10 17749392564316098294
23522609 53 17532396213644571876
23559900 14 17241888889853839119
24771293 8 12750939054727818418
249057 25 17749399186908009436
3009799 131 12252173100376515166
3418910 222 18190471630755379380
3663271 9 18113896057786415330
4073 2 18336550413295655282
4144715 1 18268156357462241162
497634 4 17894342289410845031
5104073 3 18337110047444705650
5969126 39 18342731949550543727
9896288 288 18410859832769366451

> <PUBCHEM_SHAPE_MULTIPOLES>
539.82
20.37
3.89
1.46
44.23
5.96
0.08
-5.41
3.3
-11.99
1.59
0.04
-0.29
0.11

> <PUBCHEM_SHAPE_SELFOVERLAP>
1118.798

> <PUBCHEM_SHAPE_VOLUME>
305.4

> <PUBCHEM_COORDINATE_TYPE>
2
5
10

$$$$
