827322
  -OEChem-12311613073D

 38 41  0     0  0  0  0  0  0999 V2000
    1.9346    1.9619   -0.3595 S   0  0  0  0  0  0  0  0  0  0  0  0
    2.1370   -0.6795   -0.0974 N   0  0  0  0  0  0  0  0  0  0  0  0
   -0.4942   -1.8883    0.9662 N   0  0  0  0  0  0  0  0  0  0  0  0
    2.8711   -2.7398    0.2016 N   0  0  0  0  0  0  0  0  0  0  0  0
    3.7745   -2.0738   -0.5893 N   0  0  0  0  0  0  0  0  0  0  0  0
    1.3007    0.4273   -0.0182 C   0  0  0  0  0  0  0  0  0  0  0  0
   -0.0425    0.4268    0.3115 C   0  0  0  0  0  0  0  0  0  0  0  0
   -0.8868   -0.7635    0.4781 C   0  0  0  0  0  0  0  0  0  0  0  0
    1.9149   -1.8930    0.5189 C   0  0  0  0  0  0  0  0  0  0  0  0
    0.4581    2.7138    0.0489 C   0  0  0  0  0  0  0  0  0  0  0  0
   -0.5088    1.7902    0.3812 C   0  0  0  0  0  0  0  0  0  0  0  0
    0.8357   -2.0899    1.5153 C   0  0  0  0  0  0  0  0  0  0  0  0
    3.3442   -0.8411   -0.7311 C   0  0  0  0  0  0  0  0  0  0  0  0
    0.3456    4.1869   -0.0080 C   0  0  0  0  0  0  0  0  0  0  0  0
   -2.3003   -0.6759    0.0249 C   0  0  0  0  0  0  0  0  0  0  0  0
    4.0450    0.1651   -1.5557 C   0  0  0  0  0  0  0  0  0  0  0  0
    0.6878    4.8603    1.3241 C   0  0  0  0  0  0  0  0  0  0  0  0
   -2.6334    0.1610   -1.0344 C   0  0  0  0  0  0  0  0  0  0  0  0
   -3.2768   -1.4314    0.6647 C   0  0  0  0  0  0  0  0  0  0  0  0
   -3.9595    0.2434   -1.4593 C   0  0  0  0  0  0  0  0  0  0  0  0
   -4.6029   -1.3490    0.2397 C   0  0  0  0  0  0  0  0  0  0  0  0
   -4.9441   -0.5116   -0.8223 C   0  0  0  0  0  0  0  0  0  0  0  0
   -1.5146    2.0835    0.6572 H   0  0  0  0  0  0  0  0  0  0  0  0
    0.8910   -3.1167    1.8949 H   0  0  0  0  0  0  0  0  0  0  0  0
    0.9929   -1.4405    2.3854 H   0  0  0  0  0  0  0  0  0  0  0  0
    0.9905    4.6006   -0.7931 H   0  0  0  0  0  0  0  0  0  0  0  0
   -0.6798    4.4630   -0.2844 H   0  0  0  0  0  0  0  0  0  0  0  0
    4.4882    0.9558   -0.9442 H   0  0  0  0  0  0  0  0  0  0  0  0
    4.8799   -0.3141   -2.0814 H   0  0  0  0  0  0  0  0  0  0  0  0
    3.4015    0.5835   -2.3349 H   0  0  0  0  0  0  0  0  0  0  0  0
    0.0284    4.5074    2.1243 H   0  0  0  0  0  0  0  0  0  0  0  0
    0.5718    5.9453    1.2392 H   0  0  0  0  0  0  0  0  0  0  0  0
    1.7208    4.6493    1.6202 H   0  0  0  0  0  0  0  0  0  0  0  0
   -1.8929    0.7227   -1.5954 H   0  0  0  0  0  0  0  0  0  0  0  0
   -3.0369   -2.0839    1.4997 H   0  0  0  0  0  0  0  0  0  0  0  0
   -4.2238    0.8856   -2.2945 H   0  0  0  0  0  0  0  0  0  0  0  0
   -5.3702   -1.9356    0.7366 H   0  0  0  0  0  0  0  0  0  0  0  0
   -5.9762   -0.4494   -1.1548 H   0  0  0  0  0  0  0  0  0  0  0  0
  1  6  1  0  0  0  0
  1 10  1  0  0  0  0
  2  6  1  0  0  0  0
  2  9  1  0  0  0  0
  2 13  1  0  0  0  0
  3  8  2  0  0  0  0
  3 12  1  0  0  0  0
  4  5  1  0  0  0  0
  4  9  2  0  0  0  0
  5 13  2  0  0  0  0
  6  7  2  0  0  0  0
  7  8  1  0  0  0  0
  7 11  1  0  0  0  0
  8 15  1  0  0  0  0
  9 12  1  0  0  0  0
 10 11  2  0  0  0  0
 10 14  1  0  0  0  0
 11 23  1  0  0  0  0
 12 24  1  0  0  0  0
 12 25  1  0  0  0  0
 13 16  1  0  0  0  0
 14 17  1  0  0  0  0
 14 26  1  0  0  0  0
 14 27  1  0  0  0  0
 15 18  2  0  0  0  0
 15 19  1  0  0  0  0
 16 28  1  0  0  0  0
 16 29  1  0  0  0  0
 16 30  1  0  0  0  0
 17 31  1  0  0  0  0
 17 32  1  0  0  0  0
 17 33  1  0  0  0  0
 18 20  1  0  0  0  0
 18 34  1  0  0  0  0
 19 21  2  0  0  0  0
 19 35  1  0  0  0  0
 20 22  2  0  0  0  0
 20 36  1  0  0  0  0
 21 22  1  0  0  0  0
 21 37  1  0  0  0  0
 22 38  1  0  0  0  0
M  END
> <PUBCHEM_COMPOUND_CID>
827322

> <PUBCHEM_CONFORMER_RMSD>
0.6

> <PUBCHEM_CONFORMER_DIVERSEORDER>
2
4
1
3
5

> <PUBCHEM_MMFF94_PARTIAL_CHARGES>
27
1 -0.08
10 -0.14
11 -0.15
12 0.43
13 0.01
14 0.18
15 0.09
16 0.18
18 -0.15
19 -0.15
2 0.38
20 -0.15
21 -0.15
22 -0.15
23 0.15
3 -0.7
34 0.15
35 0.15
36 0.15
37 0.15
38 0.15
4 -0.34
5 -0.34
6 -0.04
7 -0.09
8 0.45
9 0.01

> <PUBCHEM_EFFECTIVE_ROTOR_COUNT>
2.2

> <PUBCHEM_PHARMACOPHORE_FEATURES>
8
1 17 hydrophobe
1 3 acceptor
3 2 4 9 cation
3 2 5 13 cation
5 1 6 7 10 11 rings
5 2 4 5 9 13 rings
6 15 18 19 20 21 22 rings
7 2 3 6 7 8 9 12 rings

> <PUBCHEM_HEAVY_ATOM_COUNT>
22

> <PUBCHEM_ATOM_DEF_STEREO_COUNT>
0

> <PUBCHEM_ATOM_UDEF_STEREO_COUNT>
0

> <PUBCHEM_BOND_DEF_STEREO_COUNT>
0

> <PUBCHEM_BOND_UDEF_STEREO_COUNT>
0

> <PUBCHEM_ISOTOPIC_ATOM_COUNT>
0

> <PUBCHEM_COMPONENT_COUNT>
1

> <PUBCHEM_CACTVS_TAUTO_COUNT>
1

> <PUBCHEM_CONFORMER_ID>
000C9FBA00000002

> <PUBCHEM_MMFF94_ENERGY>
63.9392

> <PUBCHEM_FEATURE_SELFOVERLAP>
43.178

> <PUBCHEM_SHAPE_FINGERPRINT>
10165383 225 17181973323123476689
104564 63 18051689949792864465
10906281 52 18264781015953357944
11578080 2 17559373800008396832
116883 192 17981325590597708815
12035759 4 17900819349195859188
12293681 160 18261970612766345128
12553582 1 18338528442876385914
12623949 98 17834426740435845235
12707595 3 18410004442792813975
12730499 353 18048038764241276803
12788726 201 17906725908791911993
13134695 92 18413100671588778389
13140716 1 18267298738091941433
13540713 5 17683536039797556778
13911987 19 18118147950728927020
13955234 65 18196935698189574033
14178342 30 17759228610412502602
14790565 3 17618506476222976597
14866123 147 17474385777677024299
15210252 30 17749392542061170900
15230672 131 17543349814975144308
16945 1 18339081600235605554
1813 80 17988936547661037599
18785283 64 17974292319868675553
20645477 70 18339634646590872823
20671657 53 18342460326669627383
21029758 11 18409733958579060194
221357 26 18335414656733767767
221490 88 18262805202005754219
22620623 9 17697614194820733654
23419403 2 16957825474193952474
23557571 272 18051107238932441002
23558518 356 17902525791796490834
23559900 14 18268146646235145576
238 59 17976790380411869295
25147074 1 17609785193389055714
2748010 2 17469617659476778944
283562 15 18264773147520251418
3091708 16 9067958842881334904
3298306 158 17906180903454908020
3323516 105 18261111919680841607
532947 4 18053950829574244928
6438718 38 17699560351876869709
6443956 14 18410856602853804308
7164475 11 18122627154615196454
7364860 26 18339077228096197633
81228 2 18049996693127532112
84936 182 17984424315540403049
9709674 26 18190739937303889635
9862522 239 16827838297433680320

> <PUBCHEM_SHAPE_MULTIPOLES>
436.68
7.44
4.47
1.23
7.09
6.27
0.09
-4.29
3.33
-4.12
-1.93
-0.03
0.02
0.74

> <PUBCHEM_SHAPE_SELFOVERLAP>
953.967

> <PUBCHEM_SHAPE_VOLUME>
238.7

> <PUBCHEM_COORDINATE_TYPE>
2
5
10

$$$$

3307
  -OEChem-12311613083D

 38 41  0     0  0  0  0  0  0999 V2000
   -1.3675   -1.3624   -2.3303 Cl  0  0  0  0  0  0  0  0  0  0  0  0
    1.9332    2.1379    0.0059 S   0  0  0  0  0  0  0  0  0  0  0  0
    2.2694   -0.5025    0.0501 N   0  0  0  0  0  0  0  0  0  0  0  0
   -0.2866   -1.9247    1.0296 N   0  0  0  0  0  0  0  0  0  0  0  0
    3.1082   -2.5406    0.1748 N   0  0  0  0  0  0  0  0  0  0  0  0
    3.9687   -1.7679   -0.5652 N   0  0  0  0  0  0  0  0  0  0  0  0
    1.3801    0.5507    0.2252 C   0  0  0  0  0  0  0  0  0  0  0  0
    0.0423    0.4557    0.5630 C   0  0  0  0  0  0  0  0  0  0  0  0
   -0.7400   -0.7852    0.6376 C   0  0  0  0  0  0  0  0  0  0  0  0
    2.1147   -1.7716    0.5668 C   0  0  0  0  0  0  0  0  0  0  0  0
    0.4257    2.7788    0.4846 C   0  0  0  0  0  0  0  0  0  0  0  0
   -0.4903    1.7837    0.7470 C   0  0  0  0  0  0  0  0  0  0  0  0
    1.0575   -2.1029    1.5512 C   0  0  0  0  0  0  0  0  0  0  0  0
    3.4761   -0.5511   -0.6030 C   0  0  0  0  0  0  0  0  0  0  0  0
    0.2397    4.2441    0.5488 C   0  0  0  0  0  0  0  0  0  0  0  0
   -2.1610   -0.7325    0.2030 C   0  0  0  0  0  0  0  0  0  0  0  0
    4.1169    0.5528   -1.3475 C   0  0  0  0  0  0  0  0  0  0  0  0
   -0.2332    4.8387   -0.7820 C   0  0  0  0  0  0  0  0  0  0  0  0
   -2.5339   -0.9797   -1.1156 C   0  0  0  0  0  0  0  0  0  0  0  0
   -3.1242   -0.4255    1.1607 C   0  0  0  0  0  0  0  0  0  0  0  0
   -3.8792   -0.9193   -1.4791 C   0  0  0  0  0  0  0  0  0  0  0  0
   -4.4696   -0.3650    0.7971 C   0  0  0  0  0  0  0  0  0  0  0  0
   -4.8471   -0.6118   -0.5228 C   0  0  0  0  0  0  0  0  0  0  0  0
   -1.5123    2.0014    1.0314 H   0  0  0  0  0  0  0  0  0  0  0  0
    1.1679   -3.1531    1.8453 H   0  0  0  0  0  0  0  0  0  0  0  0
    1.1919   -1.5191    2.4704 H   0  0  0  0  0  0  0  0  0  0  0  0
   -0.5023    4.4839    1.3209 H   0  0  0  0  0  0  0  0  0  0  0  0
    1.1666    4.7445    0.8553 H   0  0  0  0  0  0  0  0  0  0  0  0
    4.5270    1.3126   -0.6767 H   0  0  0  0  0  0  0  0  0  0  0  0
    4.9688    0.1606   -1.9163 H   0  0  0  0  0  0  0  0  0  0  0  0
    3.4449    1.0000   -2.0854 H   0  0  0  0  0  0  0  0  0  0  0  0
    0.5003    4.6652   -1.5764 H   0  0  0  0  0  0  0  0  0  0  0  0
   -0.3783    5.9189   -0.6818 H   0  0  0  0  0  0  0  0  0  0  0  0
   -1.1833    4.3936   -1.0964 H   0  0  0  0  0  0  0  0  0  0  0  0
   -2.8436   -0.2332    2.1930 H   0  0  0  0  0  0  0  0  0  0  0  0
   -4.1901   -1.1088   -2.5033 H   0  0  0  0  0  0  0  0  0  0  0  0
   -5.2232   -0.1262    1.5417 H   0  0  0  0  0  0  0  0  0  0  0  0
   -5.8946   -0.5647   -0.8057 H   0  0  0  0  0  0  0  0  0  0  0  0
  1 19  1  0  0  0  0
  2  7  1  0  0  0  0
  2 11  1  0  0  0  0
  3  7  1  0  0  0  0
  3 10  1  0  0  0  0
  3 14  1  0  0  0  0
  4  9  2  0  0  0  0
  4 13  1  0  0  0  0
  5  6  1  0  0  0  0
  5 10  2  0  0  0  0
  6 14  2  0  0  0  0
  7  8  2  0  0  0  0
  8  9  1  0  0  0  0
  8 12  1  0  0  0  0
  9 16  1  0  0  0  0
 10 13  1  0  0  0  0
 11 12  2  0  0  0  0
 11 15  1  0  0  0  0
 12 24  1  0  0  0  0
 13 25  1  0  0  0  0
 13 26  1  0  0  0  0
 14 17  1  0  0  0  0
 15 18  1  0  0  0  0
 15 27  1  0  0  0  0
 15 28  1  0  0  0  0
 16 19  1  0  0  0  0
 16 20  2  0  0  0  0
 17 29  1  0  0  0  0
 17 30  1  0  0  0  0
 17 31  1  0  0  0  0
 18 32  1  0  0  0  0
 18 33  1  0  0  0  0
 18 34  1  0  0  0  0
 19 21  2  0  0  0  0
 20 22  1  0  0  0  0
 20 35  1  0  0  0  0
 21 23  1  0  0  0  0
 21 36  1  0  0  0  0
 22 23  2  0  0  0  0
 22 37  1  0  0  0  0
 23 38  1  0  0  0  0
M  END
> <PUBCHEM_COMPOUND_CID>
3307

> <PUBCHEM_CONFORMER_RMSD>
0.6

> <PUBCHEM_CONFORMER_DIVERSEORDER>
1
4
5
6
7
3
2

> <PUBCHEM_MMFF94_PARTIAL_CHARGES>
27
1 -0.18
10 0.01
11 -0.14
12 -0.15
13 0.43
14 0.01
15 0.18
16 0.09
17 0.18
19 0.18
2 -0.08
20 -0.15
21 -0.15
22 -0.15
23 -0.15
24 0.15
3 0.38
35 0.15
36 0.15
37 0.15
38 0.15
4 -0.7
5 -0.34
6 -0.34
7 -0.04
8 -0.09
9 0.45

> <PUBCHEM_EFFECTIVE_ROTOR_COUNT>
2.2

> <PUBCHEM_PHARMACOPHORE_FEATURES>
8
1 18 hydrophobe
1 4 acceptor
3 3 5 10 cation
3 3 6 14 cation
5 2 7 8 11 12 rings
5 3 5 6 10 14 rings
6 16 19 20 21 22 23 rings
7 3 4 7 8 9 10 13 rings

> <PUBCHEM_HEAVY_ATOM_COUNT>
23

> <PUBCHEM_ATOM_DEF_STEREO_COUNT>
0

> <PUBCHEM_ATOM_UDEF_STEREO_COUNT>
0

> <PUBCHEM_BOND_DEF_STEREO_COUNT>
0

> <PUBCHEM_BOND_UDEF_STEREO_COUNT>
0

> <PUBCHEM_ISOTOPIC_ATOM_COUNT>
0

> <PUBCHEM_COMPONENT_COUNT>
1

> <PUBCHEM_CACTVS_TAUTO_COUNT>
1

> <PUBCHEM_CONFORMER_ID>
00000CEB00000001

> <PUBCHEM_MMFF94_ENERGY>
65.2595

> <PUBCHEM_FEATURE_SELFOVERLAP>
43.178

> <PUBCHEM_SHAPE_FINGERPRINT>
10165383 225 17177751172750420813
104564 63 18194682557876658633
10906281 52 18266466597412146544
12236239 1 17989491827304352819
12553582 1 18413109450560141666
12788726 201 18192148196480688026
13134695 92 18410570699596480501
13140716 1 17833830856007871936
13149001 5 18118979228205125946
13583140 156 18335703909975859615
13642711 20 17833584514406754108
13911987 19 18043552679537895652
15210252 30 17967813846870797996
15238133 3 17753304519023717281
1601671 61 18058736780319337169
16945 1 18337669823031770546
1813 80 18201445748362230095
18785283 64 17901677277725093001
21285901 2 17773607009424813111
21641784 216 18115891636757369076
221357 26 18335975411980162109
2255824 54 18196930191603838561
23402539 116 18341613659983332034
23419403 2 14289396553773754394
23558518 356 17901115126967820178
23559900 14 18264500645257534676
23566358 27 18051978322899002983
23598288 3 17906727003871539306
23598291 2 18059295465190924325
238 59 17761468675821348319
25 1 18262518237685701690
3323516 105 18261674891051265667
34934 24 18271526489450010210
352729 6 17405428806355571696
474 4 17979624955658531297
6287921 2 17683526508937488669
7164475 11 18194122915480760278
7471813 234 18265038168472086522
9981440 41 13625250982354316366

> <PUBCHEM_SHAPE_MULTIPOLES>
459.12
7.19
4.28
1.51
4.23
6.93
0.57
-3.9
2.08
-3.05
-0.12
0.68
-0.6
-0.49

> <PUBCHEM_SHAPE_SELFOVERLAP>
992.272

> <PUBCHEM_SHAPE_VOLUME>
254.6

> <PUBCHEM_COORDINATE_TYPE>
2
5
10

$$$$
